<?xml version="1.0" encoding="ISO-8859-1"?>
<febio_spec version="3.0">
	<Module type="solid"/>
	<Globals>
		<Constants>
			<T>0</T>
			<R>0</R>
			<Fc>0</Fc>
		</Constants>
	</Globals>
	<Material>
		<material id="1" name="ElasticMaterial" type="isotropic elastic">
			<density>1</density>
			<E>100</E>
			<v>0.3</v>
		</material>
		<material id="2" name="RGrip" type="rigid body">
			<density>1</density>
			<center_of_mass>5.5,0,1</center_of_mass>
		</material>
		<material id="3" name="LGrip" type="rigid body">
			<density>1</density>
			<center_of_mass>5.5,0,1</center_of_mass>
		</material>
	</Material>
	<Mesh>
		<Nodes name="Object01">
			<node id="1">-5,-1,0</node>
			<node id="2">-5,-1,1</node>
			<node id="3">-5,-1,2</node>
			<node id="4">-5,0,0</node>
			<node id="5">-5,0,1</node>
			<node id="6">-5,0,2</node>
			<node id="7">-5,1,0</node>
			<node id="8">-5,1,1</node>
			<node id="9">-5,1,2</node>
			<node id="10">-4,-1,0</node>
			<node id="11">-4,-1,1</node>
			<node id="12">-4,-1,2</node>
			<node id="13">-4,0,0</node>
			<node id="14">-4,0,1</node>
			<node id="15">-4,0,2</node>
			<node id="16">-4,1,0</node>
			<node id="17">-4,1,1</node>
			<node id="18">-4,1,2</node>
			<node id="19">-3,-1,0</node>
			<node id="20">-3,-1,1</node>
<!-- ... 95 like lines cut -->
		</Nodes>
		<Elements type="hex8" name="Part1">
			<elem id="1">1,10,13,4,2,11,14,5</elem>
			<elem id="2">2,11,14,5,3,12,15,6</elem>
			<elem id="3">4,13,16,7,5,14,17,8</elem>
			<elem id="4">5,14,17,8,6,15,18,9</elem>
			<elem id="5">10,19,22,13,11,20,23,14</elem>
			<elem id="6">11,20,23,14,12,21,24,15</elem>
			<elem id="7">13,22,25,16,14,23,26,17</elem>
			<elem id="8">14,23,26,17,15,24,27,18</elem>
			<elem id="9">19,28,31,22,20,29,32,23</elem>
			<elem id="10">20,29,32,23,21,30,33,24</elem>
			<elem id="11">22,31,34,25,23,32,35,26</elem>
			<elem id="12">23,32,35,26,24,33,36,27</elem>
			<elem id="13">28,37,40,31,29,38,41,32</elem>
			<elem id="14">29,38,41,32,30,39,42,33</elem>
			<elem id="15">31,40,43,34,32,41,44,35</elem>
			<elem id="16">32,41,44,35,33,42,45,36</elem>
			<elem id="17">37,46,49,40,38,47,50,41</elem>
			<elem id="18">38,47,50,41,39,48,51,42</elem>
			<elem id="19">40,49,52,43,41,50,53,44</elem>
			<elem id="20">41,50,53,44,42,51,54,45</elem>
<!-- ... 20 like lines cut -->
		</Elements>
		<Elements type="hex8" name="Part2">
			<elem id="41">100,104,106,102,101,105,107,103</elem>
		</Elements>
		<Elements type="hex8" name="Part6">
			<elem id="42">108,112,114,110,109,113,115,111</elem>
		</Elements>
		<NodeSet name="RigidNodeset01">
			<n id="91"/>
			<n id="92"/>
			<n id="93"/>
			<n id="94"/>
			<n id="95"/>
			<n id="96"/>
			<n id="97"/>
			<n id="98"/>
			<n id="99"/>
		</NodeSet>
		<NodeSet name="RigidInterfaceLGrip">
			<n id="1"/>
			<n id="2"/>
			<n id="3"/>
			<n id="4"/>
			<n id="5"/>
			<n id="6"/>
			<n id="7"/>
			<n id="8"/>
			<n id="9"/>
		</NodeSet>
	</Mesh>
	<MeshDomains>
		<SolidDomain name="Part1" mat="ElasticMaterial"/>
		<SolidDomain name="Part2" mat="RGrip"/>
		<SolidDomain name="Part6" mat="LGrip"/>
	</MeshDomains>
	<Boundary>
		<bc name="RigidInterfaceRGrip" type="rigid" node_set="RigidNodeset01">
			<rb>2</rb>
		</bc>
		<bc name="RigidInterfaceLGrip" type="rigid" node_set="RigidInterfaceLGrip">
			<rb>3</rb>
		</bc>
	</Boundary>
	<Rigid>
		<rigid_constraint name="RigidConstraint7" type="fix">
			<rb>3</rb>
			<dofs>Rx,Ry,Rz,Ru,Rv,Rw</dofs>
		</rigid_constraint>
	</Rigid>
	<Contact>
	</Contact>
	<Step>
		<step id="1" name="Step01">
			<Control>
				<analysis>STATIC</analysis>
				<time_steps>10</time_steps>
				<step_size>0.1</step_size>
				<solver>
					<max_refs>15</max_refs>
					<max_ups>10</max_ups>
					<diverge_reform>1</diverge_reform>
					<reform_each_time_step>1</reform_each_time_step>
					<dtol>0.001</dtol>
					<etol>0.01</etol>
					<rtol>0</rtol>
					<lstol>0.9</lstol>
					<min_residual>1e-20</min_residual>
					<qnmethod>BFGS</qnmethod>
					<rhoi>-2</rhoi>
				</solver>
				<time_stepper>
					<dtmin>0.01</dtmin>
					<dtmax>0.1</dtmax>
					<max_retries>5</max_retries>
					<opt_iter>10</opt_iter>
				</time_stepper>
			</Control>
			<Rigid>
				<rigid_constraint name="RigidDisplacement01" type="prescribe">
					<rb>2</rb>
					<dof>Rx</dof>
					<value lc="1">2</value>
					<relative>0</relative>
				</rigid_constraint>
				<rigid_constraint name="RigidDisplacement02" type="prescribe">
					<rb>2</rb>
					<dof>Ry</dof>
					<value lc="2">0</value>
					<relative>0</relative>
				</rigid_constraint>
				<rigid_constraint name="RigidDisplacement03" type="prescribe">
					<rb>2</rb>
					<dof>Rz</dof>
					<value lc="3">2</value>
					<relative>0</relative>
				</rigid_constraint>
				<rigid_constraint name="RigidDisplacement04" type="prescribe">
					<rb>2</rb>
					<dof>Ru</dof>
					<value lc="4">3.14</value>
					<relative>0</relative>
				</rigid_constraint>
				<rigid_constraint name="RigidDisplacement05" type="prescribe">
					<rb>2</rb>
					<dof>Rv</dof>
					<value lc="5">0</value>
					<relative>0</relative>
				</rigid_constraint>
				<rigid_constraint name="RigidDisplacement06" type="prescribe">
					<rb>2</rb>
					<dof>Rw</dof>
					<value lc="6">0</value>
					<relative>0</relative>
				</rigid_constraint>
			</Rigid>
			<Constraints>
			</Constraints>
		</step>
	</Step>
	<LoadData>
		<load_controller id="1" type="loadcurve">
			<interpolate>LINEAR</interpolate>
			<points>
				<point>0,0</point>
				<point>1,1</point>
			</points>
		</load_controller>
		<load_controller id="2" type="loadcurve">
			<interpolate>LINEAR</interpolate>
			<points>
				<point>0,0</point>
				<point>1,1</point>
			</points>
		</load_controller>
		<load_controller id="3" type="loadcurve">
			<interpolate>LINEAR</interpolate>
			<points>
				<point>0,0</point>
				<point>1,1</point>
			</points>
		</load_controller>
		<load_controller id="4" type="loadcurve">
			<interpolate>LINEAR</interpolate>
			<points>
				<point>0,0</point>
				<point>1,1</point>
			</points>
		</load_controller>
		<load_controller id="5" type="loadcurve">
			<interpolate>LINEAR</interpolate>
			<points>
				<point>0,0</point>
				<point>1,1</point>
			</points>
		</load_controller>
		<load_controller id="6" type="loadcurve">
			<interpolate>LINEAR</interpolate>
			<points>
				<point>0,0</point>
				<point>1,1</point>
			</points>
		</load_controller>
	</LoadData>
	<Output>
		<plotfile type="febio">
			<var type="displacement"/>
			<var type="reaction forces"/>
			<var type="stress"/>
		</plotfile>
		<logfile>
			<element_data file="bar_explicit_rb_grips_twist_stretch_-_elem_data.txt" delim=", " data="x;y;z;sx;sy;sz;sxy;syz;sxz;s1;s2;s3;Ex;Ey;Ez;Exy;Eyz;Exz;E1;E2;E3;Fxx;Fyy;Fzz;Fxy;Fxz;Fyx;Fyz;Fzx;Fzy;J"/>
			<rigid_body_data file="bar_explicit_rb_grips_twist_stretch_-_body_data.txt" delim=", " data="x;y;z;Fx;Fy;Fz;Mx;My;Mz"/>
		</logfile>
	</Output>
</febio_spec>
