<?xml version="1.0" encoding="ISO-8859-1"?>
<febio_spec version="2.5">
  <Module type="solid"/>
	<Globals>
		<Constants>
			<T>0</T>
			<R>0</R>
			<Fc>0</Fc>
		</Constants>
	</Globals>
	<Material>
		<material id="1" name="Material1" type="isotropic elastic">
			<density>1</density>
			<E>100</E>
			<v>0.3</v>
		</material>
		<material id="2" name="Material2" type="rigid body">
			<density>1</density>
			<center_of_mass>5.5,0,1</center_of_mass>
		</material>
	</Material>
	<Geometry>
		<Nodes>
			<node id="1"> -5.0000000e+00, -1.0000000e+00,  0.0000000e+00</node>
			<node id="2"> -5.0000000e+00, -1.0000000e+00,  1.0000000e+00</node>
			<node id="3"> -5.0000000e+00, -1.0000000e+00,  2.0000000e+00</node>
			<node id="4"> -5.0000000e+00,  0.0000000e+00,  0.0000000e+00</node>
			<node id="5"> -5.0000000e+00,  0.0000000e+00,  1.0000000e+00</node>
			<node id="6"> -5.0000000e+00,  0.0000000e+00,  2.0000000e+00</node>
			<node id="7"> -5.0000000e+00,  1.0000000e+00,  0.0000000e+00</node>
			<node id="8"> -5.0000000e+00,  1.0000000e+00,  1.0000000e+00</node>
			<node id="9"> -5.0000000e+00,  1.0000000e+00,  2.0000000e+00</node>
			<node id="10"> -4.0000000e+00, -1.0000000e+00,  0.0000000e+00</node>
			<node id="11"> -4.0000000e+00, -1.0000000e+00,  1.0000000e+00</node>
			<node id="12"> -4.0000000e+00, -1.0000000e+00,  2.0000000e+00</node>
			<node id="13"> -4.0000000e+00,  0.0000000e+00,  0.0000000e+00</node>
			<node id="14"> -4.0000000e+00,  0.0000000e+00,  1.0000000e+00</node>
			<node id="15"> -4.0000000e+00,  0.0000000e+00,  2.0000000e+00</node>
			<node id="16"> -4.0000000e+00,  1.0000000e+00,  0.0000000e+00</node>
			<node id="17"> -4.0000000e+00,  1.0000000e+00,  1.0000000e+00</node>
			<node id="18"> -4.0000000e+00,  1.0000000e+00,  2.0000000e+00</node>
			<node id="19"> -3.0000000e+00, -1.0000000e+00,  0.0000000e+00</node>
			<node id="20"> -3.0000000e+00, -1.0000000e+00,  1.0000000e+00</node>
<!-- ... 87 like lines cut -->
		</Nodes>
		<Elements type="hex8" mat="1" elset="Part1">
			<elem id="1">     1,    10,    13,     4,     2,    11,    14,     5</elem>
			<elem id="2">     2,    11,    14,     5,     3,    12,    15,     6</elem>
			<elem id="3">     4,    13,    16,     7,     5,    14,    17,     8</elem>
			<elem id="4">     5,    14,    17,     8,     6,    15,    18,     9</elem>
			<elem id="5">    10,    19,    22,    13,    11,    20,    23,    14</elem>
			<elem id="6">    11,    20,    23,    14,    12,    21,    24,    15</elem>
			<elem id="7">    13,    22,    25,    16,    14,    23,    26,    17</elem>
			<elem id="8">    14,    23,    26,    17,    15,    24,    27,    18</elem>
			<elem id="9">    19,    28,    31,    22,    20,    29,    32,    23</elem>
			<elem id="10">    20,    29,    32,    23,    21,    30,    33,    24</elem>
			<elem id="11">    22,    31,    34,    25,    23,    32,    35,    26</elem>
			<elem id="12">    23,    32,    35,    26,    24,    33,    36,    27</elem>
			<elem id="13">    28,    37,    40,    31,    29,    38,    41,    32</elem>
			<elem id="14">    29,    38,    41,    32,    30,    39,    42,    33</elem>
			<elem id="15">    31,    40,    43,    34,    32,    41,    44,    35</elem>
			<elem id="16">    32,    41,    44,    35,    33,    42,    45,    36</elem>
			<elem id="17">    37,    46,    49,    40,    38,    47,    50,    41</elem>
			<elem id="18">    38,    47,    50,    41,    39,    48,    51,    42</elem>
			<elem id="19">    40,    49,    52,    43,    41,    50,    53,    44</elem>
			<elem id="20">    41,    50,    53,    44,    42,    51,    54,    45</elem>
<!-- ... 20 like lines cut -->
		</Elements>
		<Elements type="hex8" mat="2" elset="Part2">
			<elem id="41">   100,   104,   106,   102,   101,   105,   107,   103</elem>
		</Elements>
    <NodeSet name="fixed_end">
      <node id="1"/>
		  <node id="2"/>
			<node id="3"/>
			<node id="4"/>
			<node id="5"/>
			<node id="6"/>
			<node id="7"/>
			<node id="8"/>
			<node id="9"/>
    </NodeSet>
    <NodeSet name="RigidNodeset01">
      <node id="91"/>
			<node id="92"/>
			<node id="93"/>
			<node id="94"/>
			<node id="95"/>
			<node id="96"/>
			<node id="97"/>
			<node id="98"/>
			<node id="99"/>
    </NodeSet>
	</Geometry>
	<Boundary>
    <fix bc="x" node_set="fixed_end"/>
    <fix bc="y" node_set="fixed_end"/>
		<fix bc="z" node_set="fixed_end"/>
		<rigid name="RigidInterface01" rb="2" node_set="RigidNodeset01"/>
  </Boundary>
	<LoadData>
		<loadcurve id="1" type="linear">
			<point>0,0</point>
			<point>1,1</point>
		</loadcurve>
	</LoadData>
	<Output>
		<plotfile type="febio">
			<var type="displacement"/>
			<var type="stress"/>
            <var type="reaction forces"/>
		</plotfile>
    <logfile>
		<element_data file="bar_explicit_rb_grip_twist_stretch_-_elem_data.txt" delim=", " data="x;y;z;sx;sy;sz;sxy;syz;sxz;s1;s2;s3;Ex;Ey;Ez;Exy;Eyz;Exz;E1;E2;E3;Fxx;Fyy;Fzz;Fxy;Fxz;Fyx;Fyz;Fzx;Fzy;J"/>
		<rigid_body_data file="bar_explicit_rb_grip_twist_stretch_-_body_data.txt" delim=", " data="x;y;z;Fx;Fy;Fz;Mx;My;Mz"/>
    </logfile>
	</Output>
	<Step name="Step01">
		<Control>
			<time_steps>10</time_steps>
			<step_size>0.1</step_size>
			<max_refs>15</max_refs>
			<dtol>0.001</dtol>
			<etol>0.01</etol>
			<rtol>0</rtol>
			<lstol>0.9</lstol>
			<time_stepper>
				<dtmin>0.01</dtmin>
				<dtmax>0.1</dtmax>
				<max_retries>5</max_retries>
				<opt_iter>10</opt_iter>
			</time_stepper>
			<analysis type="static"/>
		</Control>
    <Boundary>
			<rigid_body mat="2">
				<prescribed bc="x" lc="1">2</prescribed>
			</rigid_body>
		  <rigid_body mat="2">
			  <prescribed bc="y" lc="1">0</prescribed>
		  </rigid_body>
			<rigid_body mat="2">
				<prescribed bc="z" lc="1">2</prescribed>
			</rigid_body>
			<rigid_body mat="2">
				<prescribed bc="Rx" lc="1">3.14</prescribed>
			</rigid_body>
      <rigid_body mat="2">
			  <prescribed bc="Ry" lc="1">0</prescribed>
		  </rigid_body>
      <rigid_body mat="2">
			  <prescribed bc="Rz" lc="1">0</prescribed>
		  </rigid_body>
    </Boundary>
	</Step>
</febio_spec>
