<?xml version="1.0" encoding="ISO-8859-1"?>
<febio_spec version="4.0">
	<Module type="solid"/>
	<Globals>
		<Constants>
			<T>0</T>
			<P>0</P>
			<R>8.31446</R>
			<Fc>96485.3</Fc>
		</Constants>
	</Globals>
	<Material>
		<material id="1" name="Material" type="neo-Hookean">
			<density>1</density>
			<E>20</E>
			<v>0</v>
		</material>
		<material id="2" name="Implicit_Body" type="rigid body">
			<density>1</density>
			<E>1</E>
			<v>0</v>
			<center_of_mass>1, 0.5, 0.5</center_of_mass>
		</material>
	</Material>
	<Mesh>
		<Nodes name="Object2">
			<node id="1">1,1,0</node>
			<node id="2">1.11022302e-16,1,0</node>
			<node id="3">0,1.11022302e-16,0</node>
			<node id="4">1,0,0</node>
			<node id="5">1,1,1</node>
			<node id="6">1.11022302e-16,1,1</node>
			<node id="7">0,1.11022302e-16,1</node>
			<node id="8">1,0,1</node>
			<node id="9">0.691279407,1,0</node>
			<node id="10">0.475174993,1,0</node>
			<node id="11">0.323901902,1,0</node>
			<node id="12">0.218010739,1,0</node>
			<node id="13">0.143886925,1,0</node>
			<node id="14">0.0920002546,1,0</node>
			<node id="15">0.0556795856,1,0</node>
			<node id="16">0.0302551173,1,0</node>
			<node id="17">0.0124579895,1,0</node>
			<node id="18">0.0124579895,1,1</node>
			<node id="19">0.0302551173,1,1</node>
			<node id="20">0.0556795856,1,1</node>
<!-- ... 24 like lines cut -->
		</Nodes>
		<Elements type="hex8" name="Part2">
			<elem id="1">1,9,35,4,5,26,36,8</elem>
			<elem id="2">9,10,34,35,26,25,37,36</elem>
			<elem id="3">10,11,33,34,25,24,38,37</elem>
			<elem id="4">11,12,32,33,24,23,39,38</elem>
			<elem id="5">12,13,31,32,23,22,40,39</elem>
			<elem id="6">13,14,30,31,22,21,41,40</elem>
			<elem id="7">14,15,29,30,21,20,42,41</elem>
			<elem id="8">15,16,28,29,20,19,43,42</elem>
			<elem id="9">16,17,27,28,19,18,44,43</elem>
			<elem id="10">17,2,3,27,18,6,7,44</elem>
		</Elements>
		<NodeSet name="sides">
			1, 2, 3, 4, 5, 6, 7, 8,
			9, 10, 11, 12, 13, 14, 15, 16,
			17, 18, 19, 20, 21, 22, 23, 24,
			25, 26, 27, 28, 29, 30, 31, 32,
			33, 34, 35, 36, 37, 38, 39, 40,
			41, 42, 43, 44
		</NodeSet>
		<NodeSet name="top">1,4,5,8</NodeSet>
		<Surface name="bottom">
			<quad4 id="1">2,3,7,6</quad4>
		</Surface>
	</Mesh>
	<MeshDomains>
		<SolidDomain name="Part2" mat="Material"/>
	</MeshDomains>
	<Boundary>
		<bc name="bottom" node_set="@surface:bottom" type="zero displacement">
			<x_dof>1</x_dof>
			<y_dof>0</y_dof>
			<z_dof>0</z_dof>
		</bc>
		<bc name="sides" node_set="sides" type="zero displacement">
			<x_dof>0</x_dof>
			<y_dof>1</y_dof>
			<z_dof>1</z_dof>
		</bc>
		<bc name="top" node_set="top" type="rigid">
			<rb>Implicit_Body</rb>
		</bc>
	</Boundary>
	<Rigid>
		<rigid_bc name="RigidFixedRotation" type="rigid_fixed">
			<rb>Implicit_Body</rb>
			<Rx_dof>0</Rx_dof>
			<Ry_dof>0</Ry_dof>
			<Rz_dof>0</Rz_dof>
			<Ru_dof>1</Ru_dof>
			<Rv_dof>1</Rv_dof>
			<Rw_dof>1</Rw_dof>
		</rigid_bc>
	</Rigid>
	<Step>
		<step id="1" name="Step1">
			<Control>
				<analysis>STATIC</analysis>
				<time_steps>10</time_steps>
				<step_size>0.1</step_size>
				<plot_zero_state>0</plot_zero_state>
				<plot_range>0,-1</plot_range>
				<plot_level>PLOT_MAJOR_ITRS</plot_level>
				<output_level>OUTPUT_MAJOR_ITRS</output_level>
				<plot_stride>1</plot_stride>
				<output_stride>1</output_stride>
				<adaptor_re_solve>1</adaptor_re_solve>
				<time_stepper type="default">
					<max_retries>5</max_retries>
					<opt_iter>11</opt_iter>
					<dtmin>0</dtmin>
					<dtmax>0.1</dtmax>
					<aggressiveness>0</aggressiveness>
					<cutback>0.5</cutback>
					<dtforce>0</dtforce>
				</time_stepper>
				<solver type="solid">
					<symmetric_stiffness>symmetric</symmetric_stiffness>
					<equation_scheme>staggered</equation_scheme>
					<equation_order>default</equation_order>
					<optimize_bw>0</optimize_bw>
					<lstol>0.9</lstol>
					<lsmin>0.01</lsmin>
					<lsiter>5</lsiter>
					<max_refs>15</max_refs>
					<check_zero_diagonal>0</check_zero_diagonal>
					<zero_diagonal_tol>0</zero_diagonal_tol>
					<force_partition>0</force_partition>
					<reform_each_time_step>1</reform_each_time_step>
					<reform_augment>0</reform_augment>
					<diverge_reform>1</diverge_reform>
					<min_residual>1e-20</min_residual>
					<max_residual>0</max_residual>
					<dtol>0.001</dtol>
					<etol>0.01</etol>
					<rtol>0</rtol>
					<rhoi>-2</rhoi>
					<alpha>1</alpha>
					<beta>0.25</beta>
					<gamma>0.5</gamma>
					<logSolve>0</logSolve>
					<arc_length>0</arc_length>
					<arc_length_scale>0</arc_length_scale>
					<qn_method type="BFGS">
						<max_ups>10</max_ups>
						<max_buffer_size>0</max_buffer_size>
						<cycle_buffer>1</cycle_buffer>
						<cmax>100000</cmax>
					</qn_method>
				</solver>
			</Control>
			<Rigid>
				<rigid_load name="RigidLoad1" type="rigid_force">
					<rb>Implicit_Body</rb>
					<dof>Rx</dof>
					<value lc="1">-1</value>
					<load_type>LOAD</load_type>
					<relative>0</relative>
				</rigid_load>
			</Rigid>
		</step>
	</Step>
	<LoadData>
		<load_controller id="1" name="LC1" type="loadcurve">
			<interpolate>LINEAR</interpolate>
			<extend>CONSTANT</extend>
			<points>
				<pt>0,0</pt>
				<pt>1,1</pt>
			</points>
		</load_controller>
	</LoadData>
	<Output>
		<plotfile type="febio">
			<var type="displacement"/>
			<var type="stress"/>
			<var type="relative volume"/>
			<var type="reaction forces"/>
		</plotfile>
	</Output>
</febio_spec>
