<?xml version='1.0' encoding='US-ASCII'?>
<febio_spec version="2.0">
  <Globals>
    <Constants>
      <R>8.314e-6</R>
      <T>294</T>
      <Fc>96485e-9</Fc>
    </Constants>
  </Globals>
  <Material>
    <material type="isotropic elastic" name="Material1" id="1">
      <E>1000000000.0</E>
      <v>0.0</v>
    </material>
  </Material>
  <Geometry>
    <Nodes>
      <node id="1">-5.000000e-03,0.000000e+00,-5.000000e-04</node>
      <node id="2">-4.138186e-03,0.000000e+00,-5.000000e-04</node>
      <node id="3">-3.445172e-03,0.000000e+00,-5.000000e-04</node>
      <node id="4">-2.887897e-03,0.000000e+00,-5.000000e-04</node>
      <node id="5">-2.439774e-03,0.000000e+00,-5.000000e-04</node>
      <node id="6">-2.079423e-03,0.000000e+00,-5.000000e-04</node>
      <node id="7">-1.789653e-03,0.000000e+00,-5.000000e-04</node>
      <node id="8">-1.556639e-03,0.000000e+00,-5.000000e-04</node>
      <node id="9">-1.369265e-03,0.000000e+00,-5.000000e-04</node>
      <node id="10">-1.218592e-03,0.000000e+00,-5.000000e-04</node>
      <node id="11">-1.097430e-03,0.000000e+00,-5.000000e-04</node>
      <node id="12">-1.000000e-03,0.000000e+00,-5.000000e-04</node>
      <node id="13">-9.178840e-04,0.000000e+00,-5.000000e-04</node>
      <node id="14">-7.683375e-04,0.000000e+00,-5.000000e-04</node>
      <node id="15">-4.959895e-04,0.000000e+00,-5.000000e-04</node>
      <node id="16">-0.000000e+00,0.000000e+00,-5.000000e-04</node>
      <node id="17">4.959895e-04,0.000000e+00,-5.000000e-04</node>
      <node id="18">7.683375e-04,0.000000e+00,-5.000000e-04</node>
      <node id="19">9.178840e-04,0.000000e+00,-5.000000e-04</node>
      <node id="20">1.000000e-03,0.000000e+00,-5.000000e-04</node>
<!-- ... 8230 like lines cut -->
    </Nodes>
    <Elements mat="1" type="hex8">
      <elem id="1">1,2,33,32,1651,1652,1683,1682</elem>
      <elem id="2">2,3,34,33,1652,1653,1684,1683</elem>
      <elem id="3">3,4,35,34,1653,1654,1685,1684</elem>
      <elem id="4">4,5,36,35,1654,1655,1686,1685</elem>
      <elem id="5">5,6,37,36,1655,1656,1687,1686</elem>
      <elem id="6">6,7,38,37,1656,1657,1688,1687</elem>
      <elem id="7">7,8,39,38,1657,1658,1689,1688</elem>
      <elem id="8">8,9,40,39,1658,1659,1690,1689</elem>
      <elem id="9">9,10,41,40,1659,1660,1691,1690</elem>
      <elem id="10">10,11,42,41,1660,1661,1692,1691</elem>
      <elem id="11">11,12,43,42,1661,1662,1693,1692</elem>
      <elem id="12">12,13,44,43,1662,1663,1694,1693</elem>
      <elem id="13">13,14,45,44,1663,1664,1695,1694</elem>
      <elem id="14">14,15,46,45,1664,1665,1696,1695</elem>
      <elem id="15">15,16,47,46,1665,1666,1697,1696</elem>
      <elem id="16">16,17,48,47,1666,1667,1698,1697</elem>
      <elem id="17">17,18,49,48,1667,1668,1699,1698</elem>
      <elem id="18">18,19,50,49,1668,1669,1700,1699</elem>
      <elem id="19">19,20,51,50,1669,1670,1701,1700</elem>
      <elem id="20">20,21,52,51,1670,1671,1702,1701</elem>
<!-- ... 6220 like lines cut -->
    </Elements>
  </Geometry>
  <Boundary>
    <fix bc="y">
      <node id="4138"/>
      <node id="4139"/>
      <node id="4140"/>
      <node id="4141"/>
      <node id="4142"/>
      <node id="4143"/>
      <node id="4144"/>
      <node id="4145"/>
      <node id="4146"/>
      <node id="4147"/>
      <node id="4148"/>
      <node id="4149"/>
      <node id="4150"/>
      <node id="4151"/>
      <node id="4152"/>
      <node id="4153"/>
      <node id="4154"/>
      <node id="4155"/>
      <node id="4156"/>
      <node id="4157"/>
<!-- ... 135 like lines cut -->
    </fix>
    <fix bc="x">
      <node id="2503"/>
      <node id="2472"/>
      <node id="5803"/>
      <node id="5772"/>
      <node id="853"/>
      <node id="822"/>
      <node id="4153"/>
      <node id="4122"/>
      <node id="7453"/>
      <node id="7422"/>
    </fix>
    <fix bc="z">
      <node id="868"/>
      <node id="837"/>
      <node id="838"/>
      <node id="807"/>
    </fix>
  </Boundary>
  <LoadData>
    <loadcurve extend="extrapolate" id="1" type="smooth">
      <point>0,0</point>
      <point>1,1</point>
    </loadcurve>
    <loadcurve extend="extrapolate" id="2" type="step">
      <point>0,0</point>
      <point>1,0.5</point>
    </loadcurve>
  </LoadData>
  <Output>
    <plotfile type="febio">
      <var type="displacement"/>
      <var type="stress"/>
    </plotfile>
  </Output>
  <Step name="Step1">
    <Module type="solid"/>
    <Control>
      <analysis type="static"/>
      <time_steps>10</time_steps>
      <rtol>0</rtol>
      <etol>0.01</etol>
      <max_ups>10</max_ups>
      <step_size>0.1</step_size>
      <max_refs>15</max_refs>
      <dtol>0.001</dtol>
      <plot_level>PLOT_MUST_POINTS</plot_level>
      <lstol>0.9</lstol>
      <time_stepper>
        <dtmin>0.01</dtmin>
        <max_retries>5</max_retries>
        <opt_iter>10</opt_iter>
        <dtmax lc="1">1</dtmax>
      </time_stepper>
    </Control>
    <Boundary>
      <prescribe bc="y" lc="1">
        <node id="4107">0.0001</node>
        <node id="4108">0.0001</node>
        <node id="4109">0.0001</node>
        <node id="4110">0.0001</node>
        <node id="4111">0.0001</node>
        <node id="4112">0.0001</node>
        <node id="4113">0.0001</node>
        <node id="4114">0.0001</node>
        <node id="4115">0.0001</node>
        <node id="4116">0.0001</node>
        <node id="4117">0.0001</node>
        <node id="4118">0.0001</node>
        <node id="4119">0.0001</node>
        <node id="4120">0.0001</node>
        <node id="4121">0.0001</node>
        <node id="4122">0.0001</node>
        <node id="4123">0.0001</node>
        <node id="4124">0.0001</node>
        <node id="4125">0.0001</node>
        <node id="4126">0.0001</node>
<!-- ... 135 like lines cut -->
      </prescribe>
    </Boundary>
  </Step>
</febio_spec>
