<?xml version='1.0' encoding='US-ASCII'?>
<febio_spec version="2.0">
  <Globals>
    <Constants>
      <R>8.314e-6</R>
      <T>294</T>
      <Fc>96485e-9</Fc>
    </Constants>
  </Globals>
  <Material>
    <material type="isotropic elastic" name="Material1" id="1">
      <E>10000000.0</E>
      <v>0.3</v>
    </material>
  </Material>
  <Geometry>
    <Nodes>
      <node id="1">-1.000000e-02,0.000000e+00,-5.000000e-04</node>
      <node id="2">-9.019844e-03,0.000000e+00,-5.000000e-04</node>
      <node id="3">-8.136729e-03,0.000000e+00,-5.000000e-04</node>
      <node id="4">-7.341047e-03,0.000000e+00,-5.000000e-04</node>
      <node id="5">-6.624142e-03,0.000000e+00,-5.000000e-04</node>
      <node id="6">-5.978215e-03,0.000000e+00,-5.000000e-04</node>
      <node id="7">-5.396239e-03,0.000000e+00,-5.000000e-04</node>
      <node id="8">-4.871881e-03,0.000000e+00,-5.000000e-04</node>
      <node id="9">-4.399438e-03,0.000000e+00,-5.000000e-04</node>
      <node id="10">-3.973769e-03,0.000000e+00,-5.000000e-04</node>
      <node id="11">-3.590244e-03,0.000000e+00,-5.000000e-04</node>
      <node id="12">-3.244690e-03,0.000000e+00,-5.000000e-04</node>
      <node id="13">-2.933348e-03,0.000000e+00,-5.000000e-04</node>
      <node id="14">-2.652830e-03,0.000000e+00,-5.000000e-04</node>
      <node id="15">-2.400086e-03,0.000000e+00,-5.000000e-04</node>
      <node id="16">-2.172364e-03,0.000000e+00,-5.000000e-04</node>
      <node id="17">-1.967188e-03,0.000000e+00,-5.000000e-04</node>
      <node id="18">-1.782326e-03,0.000000e+00,-5.000000e-04</node>
      <node id="19">-1.615766e-03,0.000000e+00,-5.000000e-04</node>
      <node id="20">-1.465697e-03,0.000000e+00,-5.000000e-04</node>
<!-- ... 17512 like lines cut -->
    </Nodes>
    <Elements mat="1" type="hex8">
      <elem id="1">1,2,57,56,2923,2924,2979,2978</elem>
      <elem id="2">2,3,58,57,2924,2925,2980,2979</elem>
      <elem id="3">3,4,59,58,2925,2926,2981,2980</elem>
      <elem id="4">4,5,60,59,2926,2927,2982,2981</elem>
      <elem id="5">5,6,61,60,2927,2928,2983,2982</elem>
      <elem id="6">6,7,62,61,2928,2929,2984,2983</elem>
      <elem id="7">7,8,63,62,2929,2930,2985,2984</elem>
      <elem id="8">8,9,64,63,2930,2931,2986,2985</elem>
      <elem id="9">9,10,65,64,2931,2932,2987,2986</elem>
      <elem id="10">10,11,66,65,2932,2933,2988,2987</elem>
      <elem id="11">11,12,67,66,2933,2934,2989,2988</elem>
      <elem id="12">12,13,68,67,2934,2935,2990,2989</elem>
      <elem id="13">13,14,69,68,2935,2936,2991,2990</elem>
      <elem id="14">14,15,70,69,2936,2937,2992,2991</elem>
      <elem id="15">15,16,71,70,2937,2938,2993,2992</elem>
      <elem id="16">16,17,72,71,2938,2939,2994,2993</elem>
      <elem id="17">17,18,73,72,2939,2940,2995,2994</elem>
      <elem id="18">18,19,74,73,2940,2941,2996,2995</elem>
      <elem id="19">19,20,75,74,2941,2942,2997,2996</elem>
      <elem id="20">20,21,76,75,2942,2943,2998,2997</elem>
<!-- ... 14020 like lines cut -->
    </Elements>
  </Geometry>
  <Boundary>
    <fix bc="y">
      <node id="1537"/>
      <node id="1538"/>
      <node id="1539"/>
      <node id="1540"/>
      <node id="10252"/>
      <node id="10253"/>
      <node id="10254"/>
      <node id="10255"/>
      <node id="10256"/>
      <node id="10257"/>
      <node id="10258"/>
      <node id="10259"/>
      <node id="10260"/>
      <node id="10261"/>
      <node id="10262"/>
      <node id="10263"/>
      <node id="10264"/>
      <node id="10265"/>
      <node id="10266"/>
      <node id="10267"/>
<!-- ... 310 like lines cut -->
    </fix>
    <fix bc="z">
      <node id="1540"/>
      <node id="1485"/>
      <node id="1486"/>
      <node id="1431"/>
    </fix>
  </Boundary>
  <LoadData>
    <loadcurve extend="extrapolate" id="1" type="smooth">
      <point>0,0</point>
      <point>1,1</point>
    </loadcurve>
    <loadcurve extend="extrapolate" id="2" type="step">
      <point>0,0</point>
      <point>1,0.5</point>
    </loadcurve>
  </LoadData>
  <Output>
    <plotfile type="febio">
      <var type="displacement"/>
      <var type="stress"/>
    </plotfile>
  </Output>
  <Step name="Step1">
    <Module type="solid"/>
    <Control>
      <analysis type="static"/>
      <time_steps>10</time_steps>
      <rtol>0</rtol>
      <etol>0.01</etol>
      <max_ups>10</max_ups>
      <step_size>0.1</step_size>
      <max_refs>15</max_refs>
      <dtol>0.001</dtol>
      <plot_level>PLOT_MUST_POINTS</plot_level>
      <lstol>0.9</lstol>
      <time_stepper>
        <dtmin>0.001</dtmin>
        <dtmax lc="2">0.1</dtmax>
        <max_retries>5</max_retries>
        <opt_iter>10</opt_iter>
      </time_stepper>
    </Control>
    <Boundary>
      <prescribe bc="y" lc="1">
        <node id="10241">0.001</node>
        <node id="10242">0.001</node>
        <node id="10243">0.001</node>
        <node id="10244">0.001</node>
        <node id="10245">0.001</node>
        <node id="10246">0.001</node>
        <node id="10247">0.001</node>
        <node id="10248">0.001</node>
        <node id="10249">0.001</node>
        <node id="10250">0.001</node>
        <node id="10251">0.001</node>
        <node id="7275">0.001</node>
        <node id="7276">0.001</node>
        <node id="7277">0.001</node>
        <node id="7278">0.001</node>
        <node id="7279">0.001</node>
        <node id="7280">0.001</node>
        <node id="7281">0.001</node>
        <node id="7282">0.001</node>
        <node id="7283">0.001</node>
<!-- ... 310 like lines cut -->
      </prescribe>
    </Boundary>
  </Step>
</febio_spec>
