<?xml version='1.0' encoding='US-ASCII'?>
<febio_spec version="2.0">
  <Globals>
    <Constants>
      <R>8.314e-6</R>
      <T>294</T>
      <Fc>96485e-9</Fc>
    </Constants>
  </Globals>
  <Material>
    <material type="isotropic elastic" name="Material1" id="1">
      <E>10000000.0</E>
      <v>0.3</v>
    </material>
  </Material>
  <Geometry>
    <Nodes>
      <node id="1">-1.000000e-02,0.000000e+00,-5.000000e-04</node>
      <node id="2">-9.019844e-03,0.000000e+00,-5.000000e-04</node>
      <node id="3">-8.136729e-03,0.000000e+00,-5.000000e-04</node>
      <node id="4">-7.341047e-03,0.000000e+00,-5.000000e-04</node>
      <node id="5">-6.624142e-03,0.000000e+00,-5.000000e-04</node>
      <node id="6">-5.978215e-03,0.000000e+00,-5.000000e-04</node>
      <node id="7">-5.396239e-03,0.000000e+00,-5.000000e-04</node>
      <node id="8">-4.871881e-03,0.000000e+00,-5.000000e-04</node>
      <node id="9">-4.399438e-03,0.000000e+00,-5.000000e-04</node>
      <node id="10">-3.973769e-03,0.000000e+00,-5.000000e-04</node>
      <node id="11">-3.590244e-03,0.000000e+00,-5.000000e-04</node>
      <node id="12">-3.244690e-03,0.000000e+00,-5.000000e-04</node>
      <node id="13">-2.933348e-03,0.000000e+00,-5.000000e-04</node>
      <node id="14">-2.652830e-03,0.000000e+00,-5.000000e-04</node>
      <node id="15">-2.400086e-03,0.000000e+00,-5.000000e-04</node>
      <node id="16">-2.172364e-03,0.000000e+00,-5.000000e-04</node>
      <node id="17">-1.967188e-03,0.000000e+00,-5.000000e-04</node>
      <node id="18">-1.782326e-03,0.000000e+00,-5.000000e-04</node>
      <node id="19">-1.615766e-03,0.000000e+00,-5.000000e-04</node>
      <node id="20">-1.465697e-03,0.000000e+00,-5.000000e-04</node>
<!-- ... 17188 like lines cut -->
    </Nodes>
    <Elements mat="1" type="hex8">
      <elem id="1">1,2,56,55,2869,2870,2924,2923</elem>
      <elem id="2">2,3,57,56,2870,2871,2925,2924</elem>
      <elem id="3">3,4,58,57,2871,2872,2926,2925</elem>
      <elem id="4">4,5,59,58,2872,2873,2927,2926</elem>
      <elem id="5">5,6,60,59,2873,2874,2928,2927</elem>
      <elem id="6">6,7,61,60,2874,2875,2929,2928</elem>
      <elem id="7">7,8,62,61,2875,2876,2930,2929</elem>
      <elem id="8">8,9,63,62,2876,2877,2931,2930</elem>
      <elem id="9">9,10,64,63,2877,2878,2932,2931</elem>
      <elem id="10">10,11,65,64,2878,2879,2933,2932</elem>
      <elem id="11">11,12,66,65,2879,2880,2934,2933</elem>
      <elem id="12">12,13,67,66,2880,2881,2935,2934</elem>
      <elem id="13">13,14,68,67,2881,2882,2936,2935</elem>
      <elem id="14">14,15,69,68,2882,2883,2937,2936</elem>
      <elem id="15">15,16,70,69,2883,2884,2938,2937</elem>
      <elem id="16">16,17,71,70,2884,2885,2939,2938</elem>
      <elem id="17">17,18,72,71,2885,2886,2940,2939</elem>
      <elem id="18">18,19,73,72,2886,2887,2941,2940</elem>
      <elem id="19">19,20,74,73,2887,2888,2942,2941</elem>
      <elem id="20">20,21,75,74,2888,2889,2943,2942</elem>
<!-- ... 13760 like lines cut -->
    </Elements>
  </Geometry>
  <Boundary>
    <fix bc="y">
      <node id="7195"/>
      <node id="7196"/>
      <node id="7197"/>
      <node id="7198"/>
      <node id="7199"/>
      <node id="7200"/>
      <node id="7201"/>
      <node id="7202"/>
      <node id="7203"/>
      <node id="7204"/>
      <node id="7205"/>
      <node id="7206"/>
      <node id="7207"/>
      <node id="7208"/>
      <node id="7209"/>
      <node id="7210"/>
      <node id="7211"/>
      <node id="7212"/>
      <node id="7213"/>
      <node id="7214"/>
<!-- ... 304 like lines cut -->
    </fix>
    <fix bc="z">
      <node id="1458"/>
      <node id="1459"/>
      <node id="1405"/>
      <node id="1512"/>
    </fix>
  </Boundary>
  <LoadData>
    <loadcurve extend="extrapolate" id="1" type="smooth">
      <point>0,0</point>
      <point>1,1</point>
    </loadcurve>
    <loadcurve extend="extrapolate" id="2" type="step">
      <point>0,0</point>
      <point>1,0.5</point>
    </loadcurve>
  </LoadData>
  <Output>
    <plotfile type="febio">
      <var type="displacement"/>
      <var type="stress"/>
    </plotfile>
  </Output>
  <Step name="Step1">
    <Module type="solid"/>
    <Control>
      <analysis type="static"/>
      <time_steps>10</time_steps>
      <rtol>0</rtol>
      <etol>0.001</etol>
      <max_ups>10</max_ups>
      <step_size>0.1</step_size>
      <max_refs>15</max_refs>
      <dtol>0.001</dtol>
      <plot_level>PLOT_MUST_POINTS</plot_level>
      <lstol>0.9</lstol>
      <time_stepper>
        <dtmin>0.001</dtmin>
        <dtmax lc="2">0.1</dtmax>
        <max_retries>5</max_retries>
        <opt_iter>10</opt_iter>
      </time_stepper>
    </Control>
    <Boundary>
      <prescribe bc="y" lc="1">
        <node id="7169">0.001</node>
        <node id="7170">0.001</node>
        <node id="7171">0.001</node>
        <node id="7172">0.001</node>
        <node id="7173">0.001</node>
        <node id="7174">0.001</node>
        <node id="7175">0.001</node>
        <node id="7176">0.001</node>
        <node id="7177">0.001</node>
        <node id="7178">0.001</node>
        <node id="7179">0.001</node>
        <node id="7180">0.001</node>
        <node id="7181">0.001</node>
        <node id="7182">0.001</node>
        <node id="7183">0.001</node>
        <node id="7184">0.001</node>
        <node id="7185">0.001</node>
        <node id="7186">0.001</node>
        <node id="7187">0.001</node>
        <node id="7188">0.001</node>
<!-- ... 304 like lines cut -->
      </prescribe>
    </Boundary>
  </Step>
</febio_spec>
