<?xml version="1.0" encoding="ISO-8859-1"?>
<febio_spec version="1.2">
	<Globals>
		<Constants>
			<T>0</T>
			<R>0</R>
			<Fc>0</Fc>
		</Constants>
	</Globals>
	<Material>
		<material id="1" name="Material1" type="isotropic elastic">
			<density>1</density>
			<E>100</E>
			<v>0.3</v>
		</material>
		<material id="2" name="Material2" type="rigid body">
			<density>1</density>
			<center_of_mass>5.5,0,1</center_of_mass>
		</material>
	</Material>
	<Geometry>
		<Nodes>
			<node id="1">-5.0000000e+000,-1.0000000e+000, 0.0000000e+000</node>
			<node id="2">-5.0000000e+000,-1.0000000e+000, 1.0000000e+000</node>
			<node id="3">-5.0000000e+000,-1.0000000e+000, 2.0000000e+000</node>
			<node id="4">-5.0000000e+000, 0.0000000e+000, 0.0000000e+000</node>
			<node id="5">-5.0000000e+000, 0.0000000e+000, 1.0000000e+000</node>
			<node id="6">-5.0000000e+000, 0.0000000e+000, 2.0000000e+000</node>
			<node id="7">-5.0000000e+000, 1.0000000e+000, 0.0000000e+000</node>
			<node id="8">-5.0000000e+000, 1.0000000e+000, 1.0000000e+000</node>
			<node id="9">-5.0000000e+000, 1.0000000e+000, 2.0000000e+000</node>
			<node id="10">-4.0000000e+000,-1.0000000e+000, 0.0000000e+000</node>
			<node id="11">-4.0000000e+000,-1.0000000e+000, 1.0000000e+000</node>
			<node id="12">-4.0000000e+000,-1.0000000e+000, 2.0000000e+000</node>
			<node id="13">-4.0000000e+000, 0.0000000e+000, 0.0000000e+000</node>
			<node id="14">-4.0000000e+000, 0.0000000e+000, 1.0000000e+000</node>
			<node id="15">-4.0000000e+000, 0.0000000e+000, 2.0000000e+000</node>
			<node id="16">-4.0000000e+000, 1.0000000e+000, 0.0000000e+000</node>
			<node id="17">-4.0000000e+000, 1.0000000e+000, 1.0000000e+000</node>
			<node id="18">-4.0000000e+000, 1.0000000e+000, 2.0000000e+000</node>
			<node id="19">-3.0000000e+000,-1.0000000e+000, 0.0000000e+000</node>
			<node id="20">-3.0000000e+000,-1.0000000e+000, 1.0000000e+000</node>
<!-- ... 87 like lines cut -->
		</Nodes>
		<Elements>
			<hex8 id="1" mat="1">     1,    10,    13,     4,     2,    11,    14,     5</hex8>
			<hex8 id="2" mat="1">     2,    11,    14,     5,     3,    12,    15,     6</hex8>
			<hex8 id="3" mat="1">     4,    13,    16,     7,     5,    14,    17,     8</hex8>
			<hex8 id="4" mat="1">     5,    14,    17,     8,     6,    15,    18,     9</hex8>
			<hex8 id="5" mat="1">    10,    19,    22,    13,    11,    20,    23,    14</hex8>
			<hex8 id="6" mat="1">    11,    20,    23,    14,    12,    21,    24,    15</hex8>
			<hex8 id="7" mat="1">    13,    22,    25,    16,    14,    23,    26,    17</hex8>
			<hex8 id="8" mat="1">    14,    23,    26,    17,    15,    24,    27,    18</hex8>
			<hex8 id="9" mat="1">    19,    28,    31,    22,    20,    29,    32,    23</hex8>
			<hex8 id="10" mat="1">    20,    29,    32,    23,    21,    30,    33,    24</hex8>
			<hex8 id="11" mat="1">    22,    31,    34,    25,    23,    32,    35,    26</hex8>
			<hex8 id="12" mat="1">    23,    32,    35,    26,    24,    33,    36,    27</hex8>
			<hex8 id="13" mat="1">    28,    37,    40,    31,    29,    38,    41,    32</hex8>
			<hex8 id="14" mat="1">    29,    38,    41,    32,    30,    39,    42,    33</hex8>
			<hex8 id="15" mat="1">    31,    40,    43,    34,    32,    41,    44,    35</hex8>
			<hex8 id="16" mat="1">    32,    41,    44,    35,    33,    42,    45,    36</hex8>
			<hex8 id="17" mat="1">    37,    46,    49,    40,    38,    47,    50,    41</hex8>
			<hex8 id="18" mat="1">    38,    47,    50,    41,    39,    48,    51,    42</hex8>
			<hex8 id="19" mat="1">    40,    49,    52,    43,    41,    50,    53,    44</hex8>
			<hex8 id="20" mat="1">    41,    50,    53,    44,    42,    51,    54,    45</hex8>
<!-- ... 21 like lines cut -->
		</Elements>
	</Geometry>
	<Boundary>
		<fix>
			<node id="1" bc="xyz"/>
			<node id="2" bc="xyz"/>
			<node id="3" bc="xyz"/>
			<node id="4" bc="xyz"/>
			<node id="5" bc="xyz"/>
			<node id="6" bc="xyz"/>
			<node id="7" bc="xyz"/>
			<node id="8" bc="xyz"/>
			<node id="9" bc="xyz"/>
		</fix>
		<contact type="rigid">
			<node id="91" rb="2"></node>
			<node id="92" rb="2"></node>
			<node id="93" rb="2"></node>
			<node id="94" rb="2"></node>
			<node id="95" rb="2"></node>
			<node id="96" rb="2"></node>
			<node id="97" rb="2"></node>
			<node id="98" rb="2"></node>
			<node id="99" rb="2"></node>
		</contact>
	</Boundary>
	<Constraints>
		<rigid_body mat="2">
			<trans_y type="prescribed" lc="1">0</trans_y>
			<rot_y type="prescribed" lc="2">0</rot_y>
			<rot_z type="prescribed" lc="3">0</rot_z>
		</rigid_body>
	</Constraints>
	<LoadData>
		<loadcurve id="1" type="smooth">
			<loadpoint>0,0</loadpoint>
			<loadpoint>1,1</loadpoint>
		</loadcurve>
		<loadcurve id="2" type="smooth">
			<loadpoint>0,0</loadpoint>
			<loadpoint>1,1</loadpoint>
		</loadcurve>
		<loadcurve id="3" type="smooth">
			<loadpoint>0,0</loadpoint>
			<loadpoint>1,1</loadpoint>
		</loadcurve>
		<loadcurve id="4" type="smooth">
			<loadpoint>0,0</loadpoint>
			<loadpoint>1,1</loadpoint>
		</loadcurve>
		<loadcurve id="5" type="smooth">
			<loadpoint>0,0</loadpoint>
			<loadpoint>1,1</loadpoint>
		</loadcurve>
		<loadcurve id="6" type="smooth">
			<loadpoint>0,0</loadpoint>
			<loadpoint>1,1</loadpoint>
		</loadcurve>
	</LoadData>
	<Output>
		<logfile>
         <node_data data="x;y;z;ux;uy;uz" delim="," file="complex_loading_node_data.txt"/>
         <element_data data="x;y;z;sx;sy;sz;sxy;syz;sxz;s1;s2;s3;Ex;Ey;Ez;Exy;Eyz;Exz;E1;E2;E3;Fxx;Fyy;Fzz;Fxy;Fxz;Fyx;Fyz;Fzx;Fzy;J" delim="," file="complex_loading_elem_data.txt"/>
		</logfile>
		<plotfile type="febio">
			<var type="displacement"/>
			<var type="stress"/>
		</plotfile>
	</Output>
	<Step name="Step01">
		<Module type="solid"/>
		<Control>
			<time_steps>10</time_steps>
			<step_size>0.1</step_size>
			<max_refs>15</max_refs>
			<max_ups>10</max_ups>
			<dtol>0.001</dtol>
			<etol>0.01</etol>
			<rtol>0</rtol>
			<lstol>0.9</lstol>
			<time_stepper>
				<dtmin>0.01</dtmin>
				<dtmax>0.1</dtmax>
				<max_retries>5</max_retries>
				<opt_iter>10</opt_iter>
			</time_stepper>
			<analysis type="static"/>
		</Control>
		<Constraints>
			<rigid_body mat="2">
				<trans_x type="prescribed" lc="4">2</trans_x>
				<trans_z type="prescribed" lc="5">2</trans_z>
				<rot_x type="prescribed" lc="6">3.14</rot_x>
			</rigid_body>
		</Constraints>
	</Step>
</febio_spec>
