<?xml version="1.0" encoding="ISO-8859-1"?>
<!-- Exported by FEBio Studio 1.7 & formatted with xmllint &#45;&#45;format -->
<febio_spec version="3.0">
  <Material>
    <material id="1" name="Material1" type="Ogden unconstrained">
      <density>1</density>
      <cp>0</cp>
      <c1>0</c1>
      <c2>0</c2>
      <c3>0</c3>
      <c4>0</c4>
      <c5>0</c5>
      <c6>0</c6>
      <m1>1</m1>
      <m2>1</m2>
      <m3>1</m3>
      <m4>1</m4>
      <m5>1</m5>
      <m6>1</m6>
    </material>
  </Material>
  <Mesh>
    <Nodes name="Object1">
      <node id="1">-0.5,-0.5,0</node>
      <node id="2">-0.5,-0.5,1</node>
      <node id="3">-0.5,0.5,0</node>
      <node id="4">-0.5,0.5,1</node>
      <node id="5">0.5,-0.5,0</node>
      <node id="6">0.5,-0.5,1</node>
      <node id="7">0.5,0.5,0</node>
      <node id="8">0.5,0.5,1</node>
    </Nodes>
    <Elements type="hex8" name="Part1">
      <elem id="1">1,5,7,3,2,6,8,4</elem>
    </Elements>
  </Mesh>
  <MeshDomains>
    <SolidDomain name="Part1" mat="Material1"/>
  </MeshDomains>
  <Output>
    <plotfile type="febio"/>
  </Output>
</febio_spec>
