<?xml version="1.0" encoding="ISO-8859-1"?>
<febio_spec version="4.0">
	<Module type="solid"/>
	<Globals>
		<Constants>
			<T>0</T>
			<P>0</P>
			<R>8.31446</R>
			<Fc>96485.3</Fc>
		</Constants>
	</Globals>
	<Material>
		<material id="1" name="Material1" type="neo-Hookean">
			<density>1</density>
			<E>1</E>
			<v>0</v>
		</material>
	</Material>
	<Mesh>
		<Nodes name="Object1">
			<node id="1">-2,-0.5,-0.5</node>
			<node id="2">2,-0.5,-0.5</node>
			<node id="3">2,0.5,-0.5</node>
			<node id="4">-2,0.5,-0.5</node>
			<node id="5">-2,-0.5,0.5</node>
			<node id="6">2,-0.5,0.5</node>
			<node id="7">2,0.5,0.5</node>
			<node id="8">-2,0.5,0.5</node>
			<node id="9">-1,-0.5,-0.5</node>
			<node id="10">0,-0.5,-0.5</node>
			<node id="11">1,-0.5,-0.5</node>
			<node id="12">1,-0.5,0.5</node>
			<node id="13">0,-0.5,0.5</node>
			<node id="14">-1,-0.5,0.5</node>
			<node id="15">1,0.5,-0.5</node>
			<node id="16">0,0.5,-0.5</node>
			<node id="17">-1,0.5,-0.5</node>
			<node id="18">-1,0.5,0.5</node>
			<node id="19">0,0.5,0.5</node>
			<node id="20">1,0.5,0.5</node>
		</Nodes>
		<Elements type="hex8" name="Part1">
			<elem id="2">1,9,17,4,5,14,18,8</elem>
			<elem id="3">9,10,16,17,14,13,19,18</elem>
			<elem id="4">10,11,15,16,13,12,20,19</elem>
			<elem id="5">11,2,3,15,12,6,7,20</elem>
		</Elements>
		<NodeSet name="center_moving">
			10, 13, 16, 19
		</NodeSet>
		<ElementSet name="fixed">
			5
		</ElementSet>
	</Mesh>
	<MeshDomains>
		<SolidDomain name="Part1" mat="Material1"/>
	</MeshDomains>
	<Boundary>
		<bc name="left_fixed" node_set="@elem_set:fixed" type="zero displacement">
			<x_dof>1</x_dof>
			<y_dof>1</y_dof>
			<z_dof>1</z_dof>
		</bc>
	</Boundary>
	<Step>
		<step id="1" name="Step1">
			<Control>
				<analysis>STATIC</analysis>
				<time_steps>10</time_steps>
				<step_size>0.1</step_size>
				<plot_zero_state>0</plot_zero_state>
				<plot_range>0,-1</plot_range>
				<plot_level>PLOT_MAJOR_ITRS</plot_level>
				<output_level>OUTPUT_MAJOR_ITRS</output_level>
				<plot_stride>1</plot_stride>
				<output_stride>1</output_stride>
				<adaptor_re_solve>1</adaptor_re_solve>
				<time_stepper type="default">
					<max_retries>5</max_retries>
					<opt_iter>11</opt_iter>
					<dtmin>0</dtmin>
					<dtmax>0.1</dtmax>
					<aggressiveness>0</aggressiveness>
					<cutback>0.5</cutback>
					<dtforce>0</dtforce>
				</time_stepper>
				<solver type="solid">
					<symmetric_stiffness>preferred</symmetric_stiffness>
					<equation_scheme>staggered</equation_scheme>
					<equation_order>default</equation_order>
					<optimize_bw>0</optimize_bw>
					<lstol>0.9</lstol>
					<lsmin>0.01</lsmin>
					<lsiter>5</lsiter>
					<ls_check_jacobians>0</ls_check_jacobians>
					<max_refs>15</max_refs>
					<check_zero_diagonal>0</check_zero_diagonal>
					<zero_diagonal_tol>0</zero_diagonal_tol>
					<force_partition>0</force_partition>
					<reform_each_time_step>1</reform_each_time_step>
					<reform_augment>0</reform_augment>
					<diverge_reform>1</diverge_reform>
					<min_residual>1e-20</min_residual>
					<max_residual>0</max_residual>
					<dtol>0.001</dtol>
					<etol>0.01</etol>
					<rtol>0</rtol>
					<rhoi>-2</rhoi>
					<alpha>1</alpha>
					<beta>0.25</beta>
					<gamma>0.5</gamma>
					<logSolve>0</logSolve>
					<arc_length>0</arc_length>
					<arc_length_scale>0</arc_length_scale>
					<qn_method type="BFGS">
						<max_ups>10</max_ups>
						<max_buffer_size>0</max_buffer_size>
						<cycle_buffer>1</cycle_buffer>
						<cmax>100000</cmax>
					</qn_method>
				</solver>
			</Control>
			<Boundary>
				<bc name="center_moving" node_set="center_moving" type="prescribed displacement">
					<dof>x</dof>
					<value lc="1" type="math">0.5*t</value>
					<relative>0</relative>
				</bc>
			</Boundary>
		</step>
	</Step>
	<LoadData>
		<load_controller id="1" name="LC1" type="loadcurve">
			<interpolate>LINEAR</interpolate>
			<extend>CONSTANT</extend>
			<points>
				<pt>0,0</pt>
				<pt>1,1</pt>
			</points>
		</load_controller>
	</LoadData>
	<Output>
		<plotfile type="febio">
			<var type="displacement"/>
			<var type="stress"/>
			<var type="relative volume"/>
		</plotfile>
	</Output>
</febio_spec>
