<?xml version="1.0" encoding="ISO-8859-1"?>
<febio_spec version="2.0">
	<Globals>
		<Constants>
			<T>298</T>
			<R>8.314e-06</R>
			<Fc>9.6485e-05</Fc>
		</Constants>
	</Globals>
	<Material>
		<material id="1" name="MaterialNone" type="isotropic elastic">
			<density>1</density>
			<E>1e+06</E>
			<v>0.3</v>
		</material>
	</Material>
	<Geometry>
		<Nodes>
			<node id="1">  0.0000000e+00,  1.0000000e+00,  0.0000000e+00</node>
			<node id="2">  0.0000000e+00, -1.0000000e+00,  0.0000000e+00</node>
			<node id="3">  1.0000000e+00,  1.0000000e+00,  0.0000000e+00</node>
			<node id="4">  1.0000000e+00, -1.0000000e+00,  0.0000000e+00</node>
			<node id="5">  1.0000000e+00,  5.5094250e-03,  0.0000000e+00</node>
			<node id="6"> -1.0000000e+00,  1.0000000e+00,  0.0000000e+00</node>
			<node id="7"> -1.0000000e+00, -1.0000000e+00,  0.0000000e+00</node>
			<node id="8"> -1.0000000e+00,  5.5094250e-03,  0.0000000e+00</node>
			<node id="9">  3.5803810e-01, -3.0163010e-03,  0.0000000e+00</node>
			<node id="10"> -3.5803810e-01, -3.0163010e-03,  0.0000000e+00</node>
		</Nodes>
		<Elements type="tri3" mat="1" elset="Part3">
			<elem id="1">     1,     9,     3</elem>
			<elem id="2">     9,     5,     3</elem>
			<elem id="3">     5,     9,     4</elem>
			<elem id="4">     9,     2,     4</elem>
			<elem id="5">    10,     1,     6</elem>
			<elem id="6">     8,    10,     6</elem>
			<elem id="7">     1,    10,     9</elem>
			<elem id="8">    10,     2,     9</elem>
			<elem id="9">    10,     8,     7</elem>
			<elem id="10">     2,    10,     7</elem>
		</Elements>
		<ElementData>
			<element id="1">
				<thickness>0.001,0.001,0.001</thickness>
			</element>
			<element id="2">
				<thickness>0.001,0.001,0.001</thickness>
			</element>
			<element id="3">
				<thickness>0.001,0.001,0.001</thickness>
			</element>
			<element id="4">
				<thickness>0.001,0.001,0.001</thickness>
			</element>
			<element id="5">
				<thickness>0.001,0.001,0.001</thickness>
			</element>
			<element id="6">
				<thickness>0.001,0.001,0.001</thickness>
			</element>
			<element id="7">
				<thickness>0.001,0.001,0.001</thickness>
			</element>
			<element id="8">
				<thickness>0.001,0.001,0.001</thickness>
			</element>
			<element id="9">
				<thickness>0.001,0.001,0.001</thickness>
			</element>
			<element id="10">
				<thickness>0.001,0.001,0.001</thickness>
			</element>
		</ElementData>
	</Geometry>
	<Boundary>
		<fix bc="x">
			<node id="6"/>
			<node id="7"/>
			<node id="8"/>
		</fix>
		<fix bc="y">
			<node id="8"/>
		</fix>
		<fix bc="z">
			<node id="3"/>
			<node id="4"/>
			<node id="6"/>
			<node id="7"/>
		</fix>
	</Boundary>
	<LoadData>
		<loadcurve id="1" type="smooth">
			<point>0,0</point>
			<point>1,1</point>
		</loadcurve>
		<loadcurve id="2" type="smooth">
			<point>0,0</point>
			<point>1,1</point>
		</loadcurve>
	</LoadData>
	<Output>
		<plotfile type="febio">
			<var type="displacement"/>
			<var type="stress"/>
			<var type="shell thickness"/>
			<var type="shell strain"/>
		</plotfile>
		<logfile>
         <node_data data="x;y;z;ux;uy;uz" delim="," file="square_tri3_node_data.txt"/>
         <element_data data="x;y;z;sx;sy;sz;sxy;syz;sxz;s1;s2;s3;Ex;Ey;Ez;Exy;Eyz;Exz;E1;E2;E3;Fxx;Fyy;Fzz;Fxy;Fxz;Fyx;Fyz;Fzx;Fzy;J" delim="," file="square_tri3_elem_data.txt"/>
		</logfile>
	</Output>
	<Step name="Step03">
		<Module type="solid"/>
		<Control>
			<time_steps>10</time_steps>
			<step_size>0.1</step_size>
			<max_refs>15</max_refs>
			<max_ups>10</max_ups>
			<dtol>0.001</dtol>
			<etol>0.01</etol>
			<rtol>0</rtol>
			<lstol>0.9</lstol>
			<time_stepper>
				<dtmin>0.01</dtmin>
				<dtmax>0.1</dtmax>
				<max_retries>5</max_retries>
				<opt_iter>10</opt_iter>
			</time_stepper>
			<analysis type="static"/>
		</Control>
		<Boundary>
			<prescribe bc="x" lc="1">
				<node id="3">0.2</node>
				<node id="4">0.2</node>
				<node id="5">0.2</node>
			</prescribe>
			<prescribe bc="y" lc="2">
				<node id="3">0.1</node>
				<node id="4">0.1</node>
				<node id="5">0.1</node>
			</prescribe>
		</Boundary>
	</Step>
</febio_spec>
