<?xml version="1.0" encoding="utf-8"?>
<febio_spec version="3.0">
  <Module type="solid"/>
  <Material>
    <material id="1" name="rigid" type="rigid body">
      <density>1</density>
      <center_of_mass>0,0,0</center_of_mass>
    </material>
  </Material>
  <Mesh>
    <Nodes name="rigid_plane">
      <node id="1">-0.5,-0.5,0</node>
      <node id="2">-0.5,0.5,0</node>
      <node id="3">0.5,-0.5,0</node>
      <node id="4">0.5,0.5,0</node>
    </Nodes>
    <Elements type="quad4" name="rigid_plane">
      <elem id="1">1,3,4,2</elem>
    </Elements>
  </Mesh>
  <MeshDomains>
    <ShellDomain name="rigid_plane" mat="rigid"/>
  </MeshDomains>
  <Rigid>
    <!-- Test constant body displacement defined in global section -->
    <rigid_constraint name="fixed_axes" type="fix">
      <rb>1</rb>
      <dofs>Ry,Ru,Rv,Rw</dofs>
    </rigid_constraint>
    <!-- Test variable body displacement defined in global section -->
    <rigid_constraint name="variable global" type="prescribe">
      <rb>1</rb>
      <dof>Rx</dof>
      <value lc="1">0.19</value>
      <relative>0</relative>
    </rigid_constraint>
  </Rigid>
  <LoadData>
    <load_controller id="1" type="loadcurve">
      <interpolate>LINEAR</interpolate>
      <points>
        <point>0,0</point>
        <point>1,1</point>
      </points>
    </load_controller>
  </LoadData>
  <Output>
    <plotfile type="febio"/>
  </Output>
  <Step>
    <step>
      <Control>
        <analysis>STATIC</analysis>
        <time_steps>10</time_steps>
        <step_size>0.1</step_size>
        <solver>
          <max_refs>15</max_refs>
          <max_ups>10</max_ups>
          <diverge_reform>1</diverge_reform>
          <reform_each_time_step>1</reform_each_time_step>
          <dtol>0.001</dtol>
          <etol>0.01</etol>
          <rtol>0</rtol>
          <lstol>0.9</lstol>
          <min_residual>1e-20</min_residual>
          <qnmethod>BFGS</qnmethod>
          <rhoi>0</rhoi>
        </solver>
      </Control>
      <Rigid>
        <!-- Test variable body displacement defined in step section -->
        <rigid_constraint name="z-displacement" type="prescribe">
          <rb>1</rb>
          <dof>Rz</dof>
          <value lc="1">0.43</value>
          <relative>0</relative>
        </rigid_constraint>
        <!-- Don't test constant body displacement defined in step
             section; in FEBio, constant constraints in a simulation
             step is not recommended because they may not be applied
             correctly. -->
      </Rigid>
    </step>
  </Step>
</febio_spec>
