<?xml version='1.0' encoding='UTF-8'?>
<febio_spec version="2.5">
  <Module type="solid"/>
  <Globals>
    <Constants>
      <R>8.31446261815324</R>
      <T>294</T>
      <Fc>96485.33212</Fc>
    </Constants>
  </Globals>
  <Material>
    <material type="isotropic elastic" id="1">
      <E>1</E>
      <v>0</v>
    </material>
  </Material>
  <Geometry>
    <Nodes>
      <node id="1"> -0.5, -0.5,  0.0</node>
      <node id="2">  0.5, -0.5,  0.0</node>
      <node id="3">  0.5,  0.5,  0.0</node>
      <node id="4"> -0.5,  0.5,  0.0</node>
      <node id="5"> -0.5, -0.5,  1.0</node>
      <node id="6">  0.5, -0.5,  1.0</node>
      <node id="7">  0.5,  0.5,  1.0</node>
      <node id="8"> -0.5,  0.5,  1.0</node>
    </Nodes>
    <Elements type="hex8" mat="1">
      <elem id="1">1, 2, 3, 4, 5, 6, 7, 8</elem>
    </Elements>
    <NodeSet name="AllNodes">
      <node id="1"/>
      <node id="2"/>
      <node id="3"/>
      <node id="4"/>
      <node id="5"/>
      <node id="6"/>
      <node id="7"/>
      <node id="8"/>
    </NodeSet>
  </Geometry>
  <MeshData>
    <NodeData name="x1_displacement" node_set="AllNodes">
      <node lid="1">0.2</node>
      <node lid="2">0.196986</node>
      <node lid="3">0.330576</node>
      <node lid="4">0.191688</node>
      <node lid="5">0.1122629</node>
      <node lid="6">0.1373934</node>
      <node lid="7">0.43</node>
      <node lid="8">0.2872899</node>
    </NodeData>
    <NodeData name="x2_displacement" node_set="AllNodes">
      <node lid="1">-0.13</node>
      <node lid="2">-0.1462741</node>
      <node lid="3">-0.020318</node>
      <node lid="4">0.092392</node>
      <node lid="5">0.1684119</node>
      <node lid="6">-0.006859188</node>
      <node lid="7">0.06</node>
      <node lid="8">0.192521</node>
    </NodeData>
    <NodeData name="x3_displacement" node_set="AllNodes">
      <node lid="1">-0.11</node>
      <node lid="2">-0.03391983</node>
      <node lid="3">0.144852</node>
      <node lid="4">0.191554</node>
      <node lid="5">0.1198571</node>
      <node lid="6">-0.02290941</node>
      <node lid="7">0.21</node>
      <node lid="8">0.2739767</node>
    </NodeData>
  </MeshData>
  <Boundary/>
  <Contact/>
  <Constraints/>
  <LoadData>
    <loadcurve extend="constant" id="1" type="linear">
      <point>0.0, 1.0</point>
      <point>1.0, 1.0</point>
    </loadcurve>
    <loadcurve extend="extrapolate" id="2" type="linear">
      <point>0, 0</point>
      <point>1, 1</point>
    </loadcurve>
  </LoadData>
  <Output>
    <plotfile type="febio">
      <var type="displacement"/>
      <var type="stress"/>
    </plotfile>
  </Output>
  <Step name="Step1">
    <Control>
      <time_steps>1</time_steps>
      <step_size>1</step_size>
      <dtol>0.001</dtol>
      <etol>0.01</etol>
      <rtol>0</rtol>
      <lstol>0.9</lstol>
      <min_residual>1e-20</min_residual>
      <qnmethod>0</qnmethod>
      <reform_each_time_step>True</reform_each_time_step>
      <diverge_reform>True</diverge_reform>
      <max_refs>15</max_refs>
      <max_ups>10</max_ups>
      <plot_level>PLOT_MUST_POINTS</plot_level>
      <time_stepper>
        <dtmin>0.1</dtmin>
        <dtmax lc="1">1</dtmax>
        <max_retries>5</max_retries>
        <opt_iter>10</opt_iter>
      </time_stepper>
    </Control>
    <Boundary>
      <prescribe bc="x" node_set="AllNodes">
        <scale lc="2">1.0</scale>
        <value node_data="x1_displacement"/>
        <relative>0</relative>
      </prescribe>
      <prescribe bc="y" node_set="AllNodes">
        <scale lc="2">1.0</scale>
        <value node_data="x2_displacement"/>
        <relative>0</relative>
      </prescribe>
      <prescribe bc="z" node_set="AllNodes">
        <scale lc="2">1.0</scale>
        <value node_data="x3_displacement"/>
        <relative>0</relative>
      </prescribe>
    </Boundary>
  </Step>
</febio_spec>
