<?xml version='1.0' encoding='UTF-8'?>
<febio_spec version="2.5">
  <!--Exported to FEBio XML by febtools prerelease at 2020-02-07T22:24:55-->
  <Module type="solid"/>
  <Globals>
    <Constants>
      <R>8.31446261815324</R>
      <T>294</T>
      <Fc>96485.33212</Fc>
    </Constants>
  </Globals>
  <Material>
    <material type="solid mixture" id="1">
      <solid type="fiber-exp-pow">
        <alpha>65</alpha>
        <beta>2</beta>
        <ksi>0.296</ksi>
        <fiber type="angles">
          <theta>0</theta>
          <phi>60</phi>
        </fiber>
      </solid>
      <solid type="fiber-exp-pow">
        <alpha>65</alpha>
        <beta>2</beta>
        <ksi>0.296</ksi>
        <fiber type="angles">
          <theta>0</theta>
          <phi>120</phi>
        </fiber>
      </solid>
      <solid type="fiber-exp-pow">
        <alpha>65</alpha>
        <beta>2</beta>
        <ksi>0.296</ksi>
        <fiber type="angles">
          <theta>100</theta>
          <phi>90</phi>
        </fiber>
      </solid>
      <solid type="Holmes-Mow">
        <E>0.5</E>
        <v>0</v>
        <beta>3.4</beta>
      </solid>
    </material>
  </Material>
  <Geometry>
    <Nodes>
      <node id="1">0.0000000e+00, 0.0000000e+00, 0.0000000e+00</node>
      <node id="2">9.5106602e-01, 2.9077006e-01, 1.0452846e-01</node>
      <node id="3">8.3480000e-01, 9.7580000e-01, 3.4600000e-01</node>
      <node id="4">7.9400000e-02, 9.0760000e-01, 1.5640000e-01</node>
      <node id="5">1.0007744e-02, 4.8811028e-03, 9.9984770e-01</node>
      <node id="6">6.5379032e-01, -2.8174937e-01, 8.7797835e-01</node>
      <node id="7">1.0000000e+00, 1.0000000e+00, 1.0000000e+00</node>
      <node id="8">1.6356807e-01, 9.7442283e-01, 8.0903870e-01</node>
    </Nodes>
    <Elements type="hex8" mat="1">
      <elem id="1">1, 2, 3, 4, 5, 6, 7, 8</elem>
    </Elements>
    <NodeSet name="nodal_bc_step1_variable_x1_seq1_autogen_0">
      <node id="1"/>
      <node id="2"/>
      <node id="3"/>
      <node id="4"/>
      <node id="5"/>
      <node id="6"/>
      <node id="7"/>
      <node id="8"/>
    </NodeSet>
    <NodeSet name="nodal_bc_step1_variable_x2_seq1_autogen_0">
      <node id="1"/>
      <node id="2"/>
      <node id="3"/>
      <node id="4"/>
      <node id="5"/>
      <node id="6"/>
      <node id="7"/>
      <node id="8"/>
    </NodeSet>
    <NodeSet name="nodal_bc_step1_variable_x3_seq1_autogen_0">
      <node id="1"/>
      <node id="2"/>
      <node id="3"/>
      <node id="4"/>
      <node id="5"/>
      <node id="6"/>
      <node id="7"/>
      <node id="8"/>
    </NodeSet>
  </Geometry>
  <MeshData>
    <NodeData name="nodal_bc_step1_x1_seq1_autogen" node_set="nodal_bc_step1_variable_x1_seq1_autogen_0">
      <node lid="1">0</node>
      <node lid="2">0.196986</node>
      <node lid="3">0.330576</node>
      <node lid="4">0.191688</node>
      <node lid="5">0.1122629</node>
      <node lid="6">0.1373934</node>
      <node lid="7">0.43</node>
      <node lid="8">0.2872899</node>
    </NodeData>
    <NodeData name="nodal_bc_step1_x2_seq1_autogen" node_set="nodal_bc_step1_variable_x2_seq1_autogen_0">
      <node lid="1">0</node>
      <node lid="2">-0.1462741</node>
      <node lid="3">-0.020318</node>
      <node lid="4">0.092392</node>
      <node lid="5">0.1684119</node>
      <node lid="6">-0.006859188</node>
      <node lid="7">0.06</node>
      <node lid="8">0.192521</node>
    </NodeData>
    <NodeData name="nodal_bc_step1_x3_seq1_autogen" node_set="nodal_bc_step1_variable_x3_seq1_autogen_0">
      <node lid="1">0</node>
      <node lid="2">-0.03391983</node>
      <node lid="3">0.144852</node>
      <node lid="4">0.191554</node>
      <node lid="5">0.1198571</node>
      <node lid="6">-0.02290941</node>
      <node lid="7">0.21</node>
      <node lid="8">0.2739767</node>
    </NodeData>
  </MeshData>
  <Boundary/>
  <Contact/>
  <Constraints/>
  <LoadData>
    <loadcurve extend="constant" id="1" type="linear">
      <point>0.0, 1.0</point>
      <point>1.0, 1</point>
    </loadcurve>
    <loadcurve extend="extrapolate" id="2" type="linear">
      <point>0, 0</point>
      <point>1, 1</point>
    </loadcurve>
  </LoadData>
  <Output>
    <plotfile type="febio">
      <var type="displacement"/>
      <var type="stress"/>
    </plotfile>
    <logfile>
      <element_data data="Fxx;Fyy;Fzz;Fxy;Fyz;Fxz;Fyx;Fzy;Fzx;sx;sy;sz;sxy;sxz;syz" file="test_material_axes.fiberDirectionLocal_Hex8_fiber_-_element_data.txt"/>
    </logfile>
  </Output>
  <Step name="Step1">
    <Control>
      <time_steps>1</time_steps>
      <step_size>1.0</step_size>
      <dtol>0.001</dtol>
      <etol>0.01</etol>
      <rtol>0</rtol>
      <lstol>0.9</lstol>
      <min_residual>1e-20</min_residual>
      <qnmethod>0</qnmethod>
      <reform_each_time_step>True</reform_each_time_step>
      <diverge_reform>True</diverge_reform>
      <max_refs>15</max_refs>
      <max_ups>10</max_ups>
      <plot_level>PLOT_MUST_POINTS</plot_level>
      <time_stepper>
        <dtmin>0.1</dtmin>
        <max_retries>5</max_retries>
        <opt_iter>10</opt_iter>
        <dtmax lc="1">1</dtmax>
      </time_stepper>
    </Control>
    <Boundary>
      <prescribe bc="x" node_set="nodal_bc_step1_variable_x1_seq1_autogen_0">
        <scale lc="2">1.0</scale>
        <value node_data="nodal_bc_step1_x1_seq1_autogen"/>
        <relative>0</relative>
      </prescribe>
      <prescribe bc="y" node_set="nodal_bc_step1_variable_x2_seq1_autogen_0">
        <scale lc="2">1.0</scale>
        <value node_data="nodal_bc_step1_x2_seq1_autogen"/>
        <relative>0</relative>
      </prescribe>
      <prescribe bc="z" node_set="nodal_bc_step1_variable_x3_seq1_autogen_0">
        <scale lc="2">1.0</scale>
        <value node_data="nodal_bc_step1_x3_seq1_autogen"/>
        <relative>0</relative>
      </prescribe>
    </Boundary>
  </Step>
</febio_spec>
