<?xml version="1.0" encoding="utf-8"?>
<!--Single Hex8 element with two simulation steps, one with must points and one without.  The simulation doesn't do anything interesting.  It is just for checking must point detection.-->
<febio_spec version="3.0">
  <Module type="solid"/>
  <Globals>
    <Constants>
      <R>8.31446261815324e-06</R>
      <T>294</T>
      <Fc>9.64853329e-05</Fc>
    </Constants>
  </Globals>
  <Material>
    <material id="1" name="Material1" type="isotropic elastic">
      <E>1</E>
      <v>0</v>
    </material>
  </Material>
  <Mesh>
    <Nodes name="Nodes">
      <node id="1"> -0.5, -0.5,  0.0</node>
      <node id="2">  0.5, -0.5,  0.0</node>
      <node id="3">  0.5,  0.5,  0.0</node>
      <node id="4"> -0.5,  0.5,  0.0</node>
      <node id="5"> -0.5, -0.5,  1.0</node>
      <node id="6">  0.5, -0.5,  1.0</node>
      <node id="7">  0.5,  0.5,  1.0</node>
      <node id="8"> -0.5,  0.5,  1.0</node>
    </Nodes>
    <Elements type="hex8" name="Domain1">
      <elem id="1"> 1, 2, 3, 4, 5, 6, 7, 8</elem>
    </Elements>
    <NodeSet name="AllNodes">
      <node id="1"/>
      <node id="2"/>
      <node id="3"/>
      <node id="4"/>
      <node id="5"/>
      <node id="6"/>
      <node id="7"/>
      <node id="8"/>
    </NodeSet>
  </Mesh>
  <MeshDomains>
    <SolidDomain name="Domain1" mat="Material1"/>
  </MeshDomains>
  <Boundary>
    <bc type="fix" node_set="AllNodes">
      <dofs>x,y,z</dofs>
    </bc>
  </Boundary>
  <Step>
    <step id="1" name="Step_1">
      <Control>
        <time_steps>10</time_steps>
        <step_size>0.1</step_size>
        <plot_level>PLOT_MUST_POINTS</plot_level>
        <solver>
          <max_refs>15</max_refs>
          <max_ups>10</max_ups>
          <diverge_reform>1</diverge_reform>
          <reform_each_time_step>0</reform_each_time_step>
          <dtol>0.001</dtol>
          <etol>0.01</etol>
          <rtol>0</rtol>
          <lstol>0.9</lstol>
          <min_residual>1e-20</min_residual>
          <qnmethod>BFGS</qnmethod>
        </solver>
        <time_stepper>
          <dtmin>0.01</dtmin>
          <dtmax lc="1">0.1</dtmax>
          <max_retries>5</max_retries>
          <opt_iter>10</opt_iter>
        </time_stepper>
      </Control>
    </step>
    <step id="2" name="Step_2">
      <Control>
        <time_steps>20</time_steps>
        <step_size>0.05</step_size>
        <plot_level>PLOT_MAJOR_ITRS</plot_level>
        <solver>
          <max_refs>15</max_refs>
          <max_ups>10</max_ups>
          <diverge_reform>1</diverge_reform>
          <reform_each_time_step>0</reform_each_time_step>
          <dtol>0.001</dtol>
          <etol>0.01</etol>
          <rtol>0</rtol>
          <lstol>0.9</lstol>
          <min_residual>1e-20</min_residual>
          <qnmethod>BFGS</qnmethod>
        </solver>
        <time_stepper>
          <dtmin>0.01</dtmin>
          <dtmax>1</dtmax>
          <max_retries>5</max_retries>
          <opt_iter>10</opt_iter>
        </time_stepper>
      </Control>
    </step>
  </Step>
  <LoadData>
    <load_controller id="1" type="loadcurve">
      <!--for must points-->
      <interpolate>STEP</interpolate>
      <extend>CONSTANT</extend>
      <points>
        <point>0, 0.5</point>
        <point>0.5, 0.5</point>
        <point>1, 0.5</point>
      </points>
    </load_controller>
  </LoadData>
  <Output>
    <plotfile type="febio">
      <var type="displacement"/>
      <var type="Lagrange strain"/>
      <var type="stress"/>
    </plotfile>
  </Output>
</febio_spec>
