<?xml version="1.0" encoding="ISO-8859-1"?>
<febio_spec version="2.0">
	<Globals>
		<Constants>
			<T>0</T>
			<R>0</R>
			<Fc>0</Fc>
		</Constants>
	</Globals>
	<Material>
		<material id="1" name="Material1" type="isotropic elastic">
			<density>1</density>
			<E>1e+06</E>
			<v>0.33</v>
		</material>
		<material id="2" name="Material2" type="isotropic elastic">
			<density>1</density>
			<E>2e+06</E>
			<v>0.33</v>
		</material>
		<material id="3" name="Material3" type="isotropic elastic">
			<density>1</density>
			<E>3e+06</E>
			<v>0.33</v>
		</material>
		<material id="4" name="Material4" type="isotropic elastic">
			<density>1</density>
			<E>4e+06</E>
			<v>0.33</v>
		</material>
		<material id="5" name="Material5" type="isotropic elastic">
			<density>1</density>
			<E>5e+06</E>
			<v>0.33</v>
		</material>
		<material id="6" name="Material6" type="isotropic elastic">
			<density>1</density>
			<E>6e+06</E>
			<v>0.33</v>
		</material>
		<material id="7" name="Material7" type="isotropic elastic">
			<density>1</density>
			<E>7e+06</E>
			<v>0.33</v>
		</material>
		<material id="8" name="Material8" type="isotropic elastic">
			<density>1</density>
			<E>8e+06</E>
			<v>0.33</v>
		</material>
	</Material>
	<Geometry>
		<Nodes>
			<node id="1"> -1.0000000e+00, -1.0000000e+00,  0.0000000e+00</node>
			<node id="2"> -1.0000000e+00, -1.0000000e+00,  1.0000000e+00</node>
			<node id="3"> -1.0000000e+00, -1.0000000e+00,  2.0000000e+00</node>
			<node id="4"> -1.0000000e+00,  0.0000000e+00,  0.0000000e+00</node>
			<node id="5"> -1.0000000e+00,  0.0000000e+00,  1.0000000e+00</node>
			<node id="6"> -1.0000000e+00,  0.0000000e+00,  2.0000000e+00</node>
			<node id="7"> -1.0000000e+00,  1.0000000e+00,  0.0000000e+00</node>
			<node id="8"> -1.0000000e+00,  1.0000000e+00,  1.0000000e+00</node>
			<node id="9"> -1.0000000e+00,  1.0000000e+00,  2.0000000e+00</node>
			<node id="10">  0.0000000e+00, -1.0000000e+00,  0.0000000e+00</node>
			<node id="11">  0.0000000e+00, -1.0000000e+00,  1.0000000e+00</node>
			<node id="12">  0.0000000e+00, -1.0000000e+00,  2.0000000e+00</node>
			<node id="13">  0.0000000e+00,  0.0000000e+00,  0.0000000e+00</node>
			<node id="14">  0.0000000e+00,  0.0000000e+00,  1.0000000e+00</node>
			<node id="15">  0.0000000e+00,  0.0000000e+00,  2.0000000e+00</node>
			<node id="16">  0.0000000e+00,  1.0000000e+00,  0.0000000e+00</node>
			<node id="17">  0.0000000e+00,  1.0000000e+00,  1.0000000e+00</node>
			<node id="18">  0.0000000e+00,  1.0000000e+00,  2.0000000e+00</node>
			<node id="19">  1.0000000e+00, -1.0000000e+00,  0.0000000e+00</node>
			<node id="20">  1.0000000e+00, -1.0000000e+00,  1.0000000e+00</node>
<!-- ... 7 like lines cut -->
		</Nodes>
		<Elements type="hex8" mat="1" elset="Part18">
			<elem id="1">     1,    10,    13,     4,     2,    11,    14,     5</elem>
		</Elements>
		<Elements type="hex8" mat="2" elset="Part19">
			<elem id="2">     2,    11,    14,     5,     3,    12,    15,     6</elem>
		</Elements>
		<Elements type="hex8" mat="3" elset="Part20">
			<elem id="3">     4,    13,    16,     7,     5,    14,    17,     8</elem>
		</Elements>
		<Elements type="hex8" mat="5" elset="Part21">
			<elem id="4">    10,    19,    22,    13,    11,    20,    23,    14</elem>
		</Elements>
		<Elements type="hex8" mat="6" elset="Part22">
			<elem id="5">    11,    20,    23,    14,    12,    21,    24,    15</elem>
		</Elements>
		<Elements type="hex8" mat="7" elset="Part23">
			<elem id="6">     5,    14,    17,     8,     6,    15,    18,     9</elem>
			<elem id="7">    13,    22,    25,    16,    14,    23,    26,    17</elem>
		</Elements>
		<Elements type="hex8" mat="8" elset="Part24">
			<elem id="8">    14,    23,    26,    17,    15,    24,    27,    18</elem>
		</Elements>
	</Geometry>
	<Boundary>
		<fix bc="z">
			<node id="13"/>
		</fix>
		<fix bc="y">
			<node id="13"/>
		</fix>
		<fix bc="y">
			<node id="15"/>
		</fix>
		<fix bc="x">
			<node id="1"/>
			<node id="2"/>
			<node id="3"/>
			<node id="4"/>
			<node id="5"/>
			<node id="6"/>
			<node id="7"/>
			<node id="8"/>
			<node id="9"/>
		</fix>
	</Boundary>
	<LoadData>
		<loadcurve id="1" type="smooth">
			<point>0,0</point>
			<point>1,1</point>
		</loadcurve>
	</LoadData>
	<Output>
		<plotfile type="febio">
			<var type="displacement"/>
			<var type="stress"/>
		</plotfile>
	</Output>
	<Step name="Step01">
		<Module type="solid"/>
		<Control>
			<time_steps>10</time_steps>
			<step_size>0.1</step_size>
			<max_refs>15</max_refs>
			<max_ups>10</max_ups>
			<dtol>0.001</dtol>
			<etol>0.01</etol>
			<rtol>0</rtol>
			<lstol>0.9</lstol>
			<time_stepper>
				<dtmin>0.01</dtmin>
				<dtmax>0.1</dtmax>
				<max_retries>5</max_retries>
				<opt_iter>10</opt_iter>
			</time_stepper>
			<analysis type="static"/>
		</Control>
		<Boundary>
			<prescribe bc="x" lc="1">
				<node id="19">0.2</node>
				<node id="20">0.2</node>
				<node id="21">0.2</node>
				<node id="22">0.2</node>
				<node id="23">0.2</node>
				<node id="24">0.2</node>
				<node id="25">0.2</node>
				<node id="26">0.2</node>
				<node id="27">0.2</node>
			</prescribe>
		</Boundary>
	</Step>
</febio_spec>
