<?xml version='1.0' encoding='UTF-8'?>
<febio_spec version="2.5">
  <!--Exported to FEBio XML by febtools prerelease at 2020-11-18T17:52:36-->
  <Module type="biphasic"/>
  <Globals>
    <Constants>
      <R>8.31446261815324e-06</R>
      <T>294</T>
      <Fc>9.64853329e-05</Fc>
    </Constants>
  </Globals>
  <Material>
    <material type="biphasic" id="1">
      <phi0>0.23</phi0>
      <solid type="solid mixture">
        <solid type="Holmes-Mow">
          <E>0.025</E>
          <v>0.24</v>
          <beta>3.3</beta>
        </solid>
        <solid type="fiber-pow-linear">
          <E>15.56</E>
          <beta>4</beta>
          <lam0>1.03</lam0>
          <fiber type="vector">0.8660254, 0.5, 0</fiber>
        </solid>
        <solid type="fiber-pow-linear">
          <E>15.56</E>
          <beta>4</beta>
          <lam0>1.03</lam0>
          <fiber type="vector">0.8660254, -0.5, 0</fiber>
        </solid>
        <solid type="Donnan equilibrium">
          <phiw0>0.77</phiw0>
          <cF0 lc="1">46.5</cF0>
          <bosm>300</bosm>
          <Phi>1</Phi>
        </solid>
      </solid>
      <permeability type="perm-Holmes-Mow">
        <perm lc="2">1</perm>
        <M>4.8</M>
        <alpha>2</alpha>
      </permeability>
    </material>
  </Material>
  <Geometry>
    <Nodes>
      <node id="1">-4.8759085e+00, -1.2996734e+00, -8.3081406e-01</node>
      <node id="2">-3.6569314e+00, -1.2996734e+00, -8.3081406e-01</node>
      <node id="3">-2.4379542e+00, -1.2996734e+00, -8.3081406e-01</node>
      <node id="4">-1.2189771e+00, -1.2996734e+00, -8.3081406e-01</node>
      <node id="5">0.0000000e+00, -1.2996734e+00, -8.3081406e-01</node>
      <node id="6">1.2189771e+00, -1.2996734e+00, -8.3081406e-01</node>
      <node id="7">2.4379542e+00, -1.2996734e+00, -8.3081406e-01</node>
      <node id="8">3.6569314e+00, -1.2996734e+00, -8.3081406e-01</node>
      <node id="9">4.8759085e+00, -1.2996734e+00, -8.3081406e-01</node>
      <node id="10">-4.8759085e+00, -6.4983668e-01, -8.3081406e-01</node>
      <node id="11">-3.6569314e+00, -6.4983668e-01, -8.3081406e-01</node>
      <node id="12">-2.4379542e+00, -6.4983668e-01, -8.3081406e-01</node>
      <node id="13">-1.2189771e+00, -6.4983668e-01, -8.3081406e-01</node>
      <node id="14">0.0000000e+00, -6.4983668e-01, -8.3081406e-01</node>
      <node id="15">1.2189771e+00, -6.4983668e-01, -8.3081406e-01</node>
      <node id="16">2.4379542e+00, -6.4983668e-01, -8.3081406e-01</node>
      <node id="17">3.6569314e+00, -6.4983668e-01, -8.3081406e-01</node>
      <node id="18">4.8759085e+00, -6.4983668e-01, -8.3081406e-01</node>
      <node id="19">-4.8759085e+00, 0.0000000e+00, -8.3081406e-01</node>
      <node id="20">-3.6569314e+00, 0.0000000e+00, -8.3081406e-01</node>
<!-- ... 355 like lines cut -->
    </Nodes>
    <Elements type="hex8" mat="1">
      <elem id="1">1, 2, 11, 10, 46, 47, 56, 55</elem>
      <elem id="2">2, 3, 12, 11, 47, 48, 57, 56</elem>
      <elem id="3">3, 4, 13, 12, 48, 49, 58, 57</elem>
      <elem id="4">4, 5, 14, 13, 49, 50, 59, 58</elem>
      <elem id="5">5, 6, 15, 14, 50, 51, 60, 59</elem>
      <elem id="6">6, 7, 16, 15, 51, 52, 61, 60</elem>
      <elem id="7">7, 8, 17, 16, 52, 53, 62, 61</elem>
      <elem id="8">8, 9, 18, 17, 53, 54, 63, 62</elem>
      <elem id="9">10, 11, 20, 19, 55, 56, 65, 64</elem>
      <elem id="10">11, 12, 21, 20, 56, 57, 66, 65</elem>
      <elem id="11">12, 13, 22, 21, 57, 58, 67, 66</elem>
      <elem id="12">13, 14, 23, 22, 58, 59, 68, 67</elem>
      <elem id="13">14, 15, 24, 23, 59, 60, 69, 68</elem>
      <elem id="14">15, 16, 25, 24, 60, 61, 70, 69</elem>
      <elem id="15">16, 17, 26, 25, 61, 62, 71, 70</elem>
      <elem id="16">17, 18, 27, 26, 62, 63, 72, 71</elem>
      <elem id="17">19, 20, 29, 28, 64, 65, 74, 73</elem>
      <elem id="18">20, 21, 30, 29, 65, 66, 75, 74</elem>
      <elem id="19">21, 22, 31, 30, 66, 67, 76, 75</elem>
      <elem id="20">22, 23, 32, 31, 67, 68, 77, 76</elem>
<!-- ... 204 like lines cut -->
    </Elements>
    <NodeSet name="fixed_fluid_autogen-nodeset_0">
      <node id="1"/>
      <node id="2"/>
      <node id="3"/>
      <node id="4"/>
      <node id="5"/>
      <node id="6"/>
      <node id="7"/>
      <node id="8"/>
      <node id="9"/>
      <node id="10"/>
      <node id="11"/>
      <node id="12"/>
      <node id="13"/>
      <node id="14"/>
      <node id="15"/>
      <node id="16"/>
      <node id="17"/>
      <node id="18"/>
      <node id="19"/>
      <node id="20"/>
<!-- ... 238 like lines cut -->
    </NodeSet>
    <NodeSet name="center">
      <node id="113"/>
    </NodeSet>
    <NodeSet name="−x1 surface">
      <node id="226"/>
      <node id="229"/>
      <node id="232"/>
      <node id="235"/>
      <node id="238"/>
      <node id="241"/>
      <node id="244"/>
      <node id="247"/>
      <node id="250"/>
      <node id="253"/>
      <node id="256"/>
      <node id="259"/>
      <node id="262"/>
      <node id="265"/>
      <node id="268"/>
      <node id="271"/>
      <node id="274"/>
      <node id="277"/>
      <node id="280"/>
      <node id="283"/>
<!-- ... 5 like lines cut -->
    </NodeSet>
    <NodeSet name="mid-x1 surface">
      <node id="5"/>
      <node id="14"/>
      <node id="23"/>
      <node id="32"/>
      <node id="41"/>
      <node id="50"/>
      <node id="59"/>
      <node id="68"/>
      <node id="77"/>
      <node id="86"/>
      <node id="95"/>
      <node id="104"/>
      <node id="113"/>
      <node id="122"/>
      <node id="131"/>
      <node id="140"/>
      <node id="149"/>
      <node id="158"/>
      <node id="167"/>
      <node id="176"/>
<!-- ... 5 like lines cut -->
    </NodeSet>
    <NodeSet name="+x1 surface">
      <node id="303"/>
      <node id="306"/>
      <node id="309"/>
      <node id="312"/>
      <node id="315"/>
      <node id="318"/>
      <node id="321"/>
      <node id="324"/>
      <node id="327"/>
      <node id="330"/>
      <node id="333"/>
      <node id="336"/>
      <node id="339"/>
      <node id="342"/>
      <node id="345"/>
      <node id="348"/>
      <node id="351"/>
      <node id="354"/>
      <node id="357"/>
      <node id="360"/>
<!-- ... 5 like lines cut -->
    </NodeSet>
    <NodeSet name="−x2 surface">
      <node id="1"/>
      <node id="2"/>
      <node id="3"/>
      <node id="4"/>
      <node id="5"/>
      <node id="6"/>
      <node id="7"/>
      <node id="8"/>
      <node id="9"/>
      <node id="46"/>
      <node id="47"/>
      <node id="48"/>
      <node id="49"/>
      <node id="50"/>
      <node id="51"/>
      <node id="52"/>
      <node id="53"/>
      <node id="54"/>
      <node id="91"/>
      <node id="92"/>
<!-- ... 55 like lines cut -->
    </NodeSet>
    <NodeSet name="mid-x2 surface">
      <node id="19"/>
      <node id="20"/>
      <node id="21"/>
      <node id="22"/>
      <node id="23"/>
      <node id="24"/>
      <node id="25"/>
      <node id="26"/>
      <node id="27"/>
      <node id="64"/>
      <node id="65"/>
      <node id="66"/>
      <node id="67"/>
      <node id="68"/>
      <node id="69"/>
      <node id="70"/>
      <node id="71"/>
      <node id="72"/>
      <node id="109"/>
      <node id="110"/>
<!-- ... 55 like lines cut -->
    </NodeSet>
    <NodeSet name="+x2 surface">
      <node id="37"/>
      <node id="38"/>
      <node id="39"/>
      <node id="40"/>
      <node id="41"/>
      <node id="42"/>
      <node id="43"/>
      <node id="44"/>
      <node id="45"/>
      <node id="82"/>
      <node id="83"/>
      <node id="84"/>
      <node id="85"/>
      <node id="86"/>
      <node id="87"/>
      <node id="88"/>
      <node id="89"/>
      <node id="90"/>
      <node id="127"/>
      <node id="128"/>
<!-- ... 55 like lines cut -->
    </NodeSet>
    <NodeSet name="−x3 surface">
      <node id="1"/>
      <node id="2"/>
      <node id="3"/>
      <node id="4"/>
      <node id="5"/>
      <node id="6"/>
      <node id="7"/>
      <node id="8"/>
      <node id="9"/>
      <node id="10"/>
      <node id="11"/>
      <node id="12"/>
      <node id="13"/>
      <node id="14"/>
      <node id="15"/>
      <node id="16"/>
      <node id="17"/>
      <node id="18"/>
      <node id="19"/>
      <node id="20"/>
<!-- ... 55 like lines cut -->
    </NodeSet>
    <NodeSet name="mid-x3 surface">
      <node id="91"/>
      <node id="92"/>
      <node id="93"/>
      <node id="94"/>
      <node id="95"/>
      <node id="96"/>
      <node id="97"/>
      <node id="98"/>
      <node id="99"/>
      <node id="100"/>
      <node id="101"/>
      <node id="102"/>
      <node id="103"/>
      <node id="104"/>
      <node id="105"/>
      <node id="106"/>
      <node id="107"/>
      <node id="108"/>
      <node id="109"/>
      <node id="110"/>
<!-- ... 55 like lines cut -->
    </NodeSet>
    <NodeSet name="+x3 surface">
      <node id="181"/>
      <node id="182"/>
      <node id="183"/>
      <node id="184"/>
      <node id="185"/>
      <node id="186"/>
      <node id="187"/>
      <node id="188"/>
      <node id="189"/>
      <node id="190"/>
      <node id="191"/>
      <node id="192"/>
      <node id="193"/>
      <node id="194"/>
      <node id="195"/>
      <node id="196"/>
      <node id="197"/>
      <node id="198"/>
      <node id="199"/>
      <node id="200"/>
<!-- ... 55 like lines cut -->
    </NodeSet>
    <NodeSet name="−x1 grip region">
      <node id="1"/>
      <node id="10"/>
      <node id="19"/>
      <node id="28"/>
      <node id="37"/>
      <node id="46"/>
      <node id="55"/>
      <node id="64"/>
      <node id="73"/>
      <node id="82"/>
      <node id="91"/>
      <node id="100"/>
      <node id="109"/>
      <node id="118"/>
      <node id="127"/>
      <node id="136"/>
      <node id="145"/>
      <node id="154"/>
      <node id="163"/>
      <node id="172"/>
<!-- ... 80 like lines cut -->
    </NodeSet>
    <NodeSet name="+x1 grip region">
      <node id="9"/>
      <node id="18"/>
      <node id="27"/>
      <node id="36"/>
      <node id="45"/>
      <node id="54"/>
      <node id="63"/>
      <node id="72"/>
      <node id="81"/>
      <node id="90"/>
      <node id="99"/>
      <node id="108"/>
      <node id="117"/>
      <node id="126"/>
      <node id="135"/>
      <node id="144"/>
      <node id="153"/>
      <node id="162"/>
      <node id="171"/>
      <node id="180"/>
<!-- ... 80 like lines cut -->
    </NodeSet>
    <NodeSet name="nodal_bc_step1_variable_x1_seq3_autogen_0">
      <node id="5"/>
      <node id="14"/>
      <node id="23"/>
      <node id="32"/>
      <node id="41"/>
      <node id="50"/>
      <node id="59"/>
      <node id="68"/>
      <node id="77"/>
      <node id="86"/>
      <node id="95"/>
      <node id="104"/>
      <node id="113"/>
      <node id="122"/>
      <node id="131"/>
      <node id="140"/>
      <node id="149"/>
      <node id="158"/>
      <node id="167"/>
      <node id="176"/>
<!-- ... 5 like lines cut -->
    </NodeSet>
    <NodeSet name="nodal_bc_step1_variable_x3_seq3_autogen_0">
      <node id="91"/>
      <node id="92"/>
      <node id="93"/>
      <node id="94"/>
      <node id="95"/>
      <node id="96"/>
      <node id="97"/>
      <node id="98"/>
      <node id="99"/>
      <node id="100"/>
      <node id="101"/>
      <node id="102"/>
      <node id="103"/>
      <node id="104"/>
      <node id="105"/>
      <node id="106"/>
      <node id="107"/>
      <node id="108"/>
      <node id="109"/>
      <node id="110"/>
<!-- ... 55 like lines cut -->
    </NodeSet>
    <NodeSet name="nodal_bc_step1_variable_x2_seq3_autogen_0">
      <node id="19"/>
      <node id="20"/>
      <node id="21"/>
      <node id="22"/>
      <node id="23"/>
      <node id="24"/>
      <node id="25"/>
      <node id="26"/>
      <node id="27"/>
      <node id="64"/>
      <node id="65"/>
      <node id="66"/>
      <node id="67"/>
      <node id="68"/>
      <node id="69"/>
      <node id="70"/>
      <node id="71"/>
      <node id="72"/>
      <node id="109"/>
      <node id="110"/>
<!-- ... 55 like lines cut -->
    </NodeSet>
    <NodeSet name="nodal_bc_step2_variable_x1_seq5_autogen_0">
      <node id="5"/>
      <node id="14"/>
      <node id="23"/>
      <node id="32"/>
      <node id="41"/>
      <node id="50"/>
      <node id="59"/>
      <node id="68"/>
      <node id="77"/>
      <node id="86"/>
      <node id="95"/>
      <node id="104"/>
      <node id="113"/>
      <node id="122"/>
      <node id="131"/>
      <node id="140"/>
      <node id="149"/>
      <node id="158"/>
      <node id="167"/>
      <node id="176"/>
<!-- ... 5 like lines cut -->
    </NodeSet>
    <NodeSet name="nodal_bc_step2_variable_x3_seq5_autogen_0">
      <node id="91"/>
      <node id="92"/>
      <node id="93"/>
      <node id="94"/>
      <node id="95"/>
      <node id="96"/>
      <node id="97"/>
      <node id="98"/>
      <node id="99"/>
      <node id="100"/>
      <node id="101"/>
      <node id="102"/>
      <node id="103"/>
      <node id="104"/>
      <node id="105"/>
      <node id="106"/>
      <node id="107"/>
      <node id="108"/>
      <node id="109"/>
      <node id="110"/>
<!-- ... 55 like lines cut -->
    </NodeSet>
    <NodeSet name="nodal_bc_step2_variable_x2_seq5_autogen_0">
      <node id="19"/>
      <node id="20"/>
      <node id="21"/>
      <node id="22"/>
      <node id="23"/>
      <node id="24"/>
      <node id="25"/>
      <node id="26"/>
      <node id="27"/>
      <node id="64"/>
      <node id="65"/>
      <node id="66"/>
      <node id="67"/>
      <node id="68"/>
      <node id="69"/>
      <node id="70"/>
      <node id="71"/>
      <node id="72"/>
      <node id="109"/>
      <node id="110"/>
<!-- ... 55 like lines cut -->
    </NodeSet>
    <NodeSet name="nodal_bc_step3_variable_x3_seq7_autogen_0">
      <node id="113"/>
    </NodeSet>
    <NodeSet name="nodal_bc_step3_variable_x2_seq7_autogen_0">
      <node id="1"/>
      <node id="10"/>
      <node id="19"/>
      <node id="28"/>
      <node id="37"/>
      <node id="46"/>
      <node id="55"/>
      <node id="64"/>
      <node id="73"/>
      <node id="82"/>
      <node id="91"/>
      <node id="100"/>
      <node id="109"/>
      <node id="118"/>
      <node id="127"/>
      <node id="136"/>
      <node id="145"/>
      <node id="154"/>
      <node id="163"/>
      <node id="172"/>
<!-- ... 80 like lines cut -->
    </NodeSet>
    <NodeSet name="nodal_bc_step3_variable_x2_seq7_autogen_1">
      <node id="9"/>
      <node id="18"/>
      <node id="27"/>
      <node id="36"/>
      <node id="45"/>
      <node id="54"/>
      <node id="63"/>
      <node id="72"/>
      <node id="81"/>
      <node id="90"/>
      <node id="99"/>
      <node id="108"/>
      <node id="117"/>
      <node id="126"/>
      <node id="135"/>
      <node id="144"/>
      <node id="153"/>
      <node id="162"/>
      <node id="171"/>
      <node id="180"/>
<!-- ... 80 like lines cut -->
    </NodeSet>
    <NodeSet name="nodal_bc_step3_variable_x1_seq7_autogen_0">
      <node id="1"/>
      <node id="10"/>
      <node id="19"/>
      <node id="28"/>
      <node id="37"/>
      <node id="46"/>
      <node id="55"/>
      <node id="64"/>
      <node id="73"/>
      <node id="82"/>
      <node id="91"/>
      <node id="100"/>
      <node id="109"/>
      <node id="118"/>
      <node id="127"/>
      <node id="136"/>
      <node id="145"/>
      <node id="154"/>
      <node id="163"/>
      <node id="172"/>
<!-- ... 80 like lines cut -->
    </NodeSet>
    <NodeSet name="nodal_bc_step3_variable_x1_seq7_autogen_1">
      <node id="9"/>
      <node id="18"/>
      <node id="27"/>
      <node id="36"/>
      <node id="45"/>
      <node id="54"/>
      <node id="63"/>
      <node id="72"/>
      <node id="81"/>
      <node id="90"/>
      <node id="99"/>
      <node id="108"/>
      <node id="117"/>
      <node id="126"/>
      <node id="135"/>
      <node id="144"/>
      <node id="153"/>
      <node id="162"/>
      <node id="171"/>
      <node id="180"/>
<!-- ... 80 like lines cut -->
    </NodeSet>
    <NodeSet name="nodal_bc_step4_variable_x3_seq9_autogen_0">
      <node id="113"/>
    </NodeSet>
    <NodeSet name="nodal_bc_step4_variable_x2_seq9_autogen_0">
      <node id="1"/>
      <node id="10"/>
      <node id="19"/>
      <node id="28"/>
      <node id="37"/>
      <node id="46"/>
      <node id="55"/>
      <node id="64"/>
      <node id="73"/>
      <node id="82"/>
      <node id="91"/>
      <node id="100"/>
      <node id="109"/>
      <node id="118"/>
      <node id="127"/>
      <node id="136"/>
      <node id="145"/>
      <node id="154"/>
      <node id="163"/>
      <node id="172"/>
<!-- ... 80 like lines cut -->
    </NodeSet>
    <NodeSet name="nodal_bc_step4_variable_x2_seq9_autogen_1">
      <node id="9"/>
      <node id="18"/>
      <node id="27"/>
      <node id="36"/>
      <node id="45"/>
      <node id="54"/>
      <node id="63"/>
      <node id="72"/>
      <node id="81"/>
      <node id="90"/>
      <node id="99"/>
      <node id="108"/>
      <node id="117"/>
      <node id="126"/>
      <node id="135"/>
      <node id="144"/>
      <node id="153"/>
      <node id="162"/>
      <node id="171"/>
      <node id="180"/>
<!-- ... 80 like lines cut -->
    </NodeSet>
    <NodeSet name="nodal_bc_step4_variable_x1_seq9_autogen_0">
      <node id="1"/>
      <node id="10"/>
      <node id="19"/>
      <node id="28"/>
      <node id="37"/>
      <node id="46"/>
      <node id="55"/>
      <node id="64"/>
      <node id="73"/>
      <node id="82"/>
      <node id="91"/>
      <node id="100"/>
      <node id="109"/>
      <node id="118"/>
      <node id="127"/>
      <node id="136"/>
      <node id="145"/>
      <node id="154"/>
      <node id="163"/>
      <node id="172"/>
<!-- ... 80 like lines cut -->
    </NodeSet>
    <NodeSet name="nodal_bc_step4_variable_x1_seq9_autogen_1">
      <node id="9"/>
      <node id="18"/>
      <node id="27"/>
      <node id="36"/>
      <node id="45"/>
      <node id="54"/>
      <node id="63"/>
      <node id="72"/>
      <node id="81"/>
      <node id="90"/>
      <node id="99"/>
      <node id="108"/>
      <node id="117"/>
      <node id="126"/>
      <node id="135"/>
      <node id="144"/>
      <node id="153"/>
      <node id="162"/>
      <node id="171"/>
      <node id="180"/>
<!-- ... 80 like lines cut -->
    </NodeSet>
    <NodeSet name="nodal_bc_step5_variable_x3_seq11_autogen_0">
      <node id="113"/>
    </NodeSet>
    <NodeSet name="nodal_bc_step5_variable_x2_seq11_autogen_0">
      <node id="1"/>
      <node id="10"/>
      <node id="19"/>
      <node id="28"/>
      <node id="37"/>
      <node id="46"/>
      <node id="55"/>
      <node id="64"/>
      <node id="73"/>
      <node id="82"/>
      <node id="91"/>
      <node id="100"/>
      <node id="109"/>
      <node id="118"/>
      <node id="127"/>
      <node id="136"/>
      <node id="145"/>
      <node id="154"/>
      <node id="163"/>
      <node id="172"/>
<!-- ... 80 like lines cut -->
    </NodeSet>
    <NodeSet name="nodal_bc_step5_variable_x2_seq11_autogen_1">
      <node id="9"/>
      <node id="18"/>
      <node id="27"/>
      <node id="36"/>
      <node id="45"/>
      <node id="54"/>
      <node id="63"/>
      <node id="72"/>
      <node id="81"/>
      <node id="90"/>
      <node id="99"/>
      <node id="108"/>
      <node id="117"/>
      <node id="126"/>
      <node id="135"/>
      <node id="144"/>
      <node id="153"/>
      <node id="162"/>
      <node id="171"/>
      <node id="180"/>
<!-- ... 80 like lines cut -->
    </NodeSet>
    <NodeSet name="nodal_bc_step5_variable_x1_seq11_autogen_0">
      <node id="1"/>
      <node id="10"/>
      <node id="19"/>
      <node id="28"/>
      <node id="37"/>
      <node id="46"/>
      <node id="55"/>
      <node id="64"/>
      <node id="73"/>
      <node id="82"/>
      <node id="91"/>
      <node id="100"/>
      <node id="109"/>
      <node id="118"/>
      <node id="127"/>
      <node id="136"/>
      <node id="145"/>
      <node id="154"/>
      <node id="163"/>
      <node id="172"/>
<!-- ... 80 like lines cut -->
    </NodeSet>
    <NodeSet name="nodal_bc_step5_variable_x1_seq11_autogen_1">
      <node id="9"/>
      <node id="18"/>
      <node id="27"/>
      <node id="36"/>
      <node id="45"/>
      <node id="54"/>
      <node id="63"/>
      <node id="72"/>
      <node id="81"/>
      <node id="90"/>
      <node id="99"/>
      <node id="108"/>
      <node id="117"/>
      <node id="126"/>
      <node id="135"/>
      <node id="144"/>
      <node id="153"/>
      <node id="162"/>
      <node id="171"/>
      <node id="180"/>
<!-- ... 80 like lines cut -->
    </NodeSet>
    <NodeSet name="nodal_bc_step6_variable_x3_seq13_autogen_0">
      <node id="113"/>
    </NodeSet>
    <NodeSet name="nodal_bc_step6_variable_x2_seq13_autogen_0">
      <node id="1"/>
      <node id="10"/>
      <node id="19"/>
      <node id="28"/>
      <node id="37"/>
      <node id="46"/>
      <node id="55"/>
      <node id="64"/>
      <node id="73"/>
      <node id="82"/>
      <node id="91"/>
      <node id="100"/>
      <node id="109"/>
      <node id="118"/>
      <node id="127"/>
      <node id="136"/>
      <node id="145"/>
      <node id="154"/>
      <node id="163"/>
      <node id="172"/>
<!-- ... 80 like lines cut -->
    </NodeSet>
    <NodeSet name="nodal_bc_step6_variable_x2_seq13_autogen_1">
      <node id="9"/>
      <node id="18"/>
      <node id="27"/>
      <node id="36"/>
      <node id="45"/>
      <node id="54"/>
      <node id="63"/>
      <node id="72"/>
      <node id="81"/>
      <node id="90"/>
      <node id="99"/>
      <node id="108"/>
      <node id="117"/>
      <node id="126"/>
      <node id="135"/>
      <node id="144"/>
      <node id="153"/>
      <node id="162"/>
      <node id="171"/>
      <node id="180"/>
<!-- ... 80 like lines cut -->
    </NodeSet>
    <NodeSet name="nodal_bc_step6_variable_x1_seq13_autogen_0">
      <node id="1"/>
      <node id="10"/>
      <node id="19"/>
      <node id="28"/>
      <node id="37"/>
      <node id="46"/>
      <node id="55"/>
      <node id="64"/>
      <node id="73"/>
      <node id="82"/>
      <node id="91"/>
      <node id="100"/>
      <node id="109"/>
      <node id="118"/>
      <node id="127"/>
      <node id="136"/>
      <node id="145"/>
      <node id="154"/>
      <node id="163"/>
      <node id="172"/>
<!-- ... 80 like lines cut -->
    </NodeSet>
    <NodeSet name="nodal_bc_step6_variable_x1_seq13_autogen_1">
      <node id="9"/>
      <node id="18"/>
      <node id="27"/>
      <node id="36"/>
      <node id="45"/>
      <node id="54"/>
      <node id="63"/>
      <node id="72"/>
      <node id="81"/>
      <node id="90"/>
      <node id="99"/>
      <node id="108"/>
      <node id="117"/>
      <node id="126"/>
      <node id="135"/>
      <node id="144"/>
      <node id="153"/>
      <node id="162"/>
      <node id="171"/>
      <node id="180"/>
<!-- ... 80 like lines cut -->
    </NodeSet>
  </Geometry>
  <MeshData>
    <NodeData name="nodal_bc_step1_x3_seq3_autogen0" node_set="nodal_bc_step1_variable_x1_seq3_autogen_0">
      <node lid="15">1</node>
      <node lid="1">1</node>
      <node lid="16">1</node>
      <node lid="2">1</node>
      <node lid="17">1</node>
      <node lid="3">1</node>
      <node lid="18">1</node>
      <node lid="4">1</node>
      <node lid="19">1</node>
      <node lid="5">1</node>
      <node lid="20">1</node>
      <node lid="6">1</node>
      <node lid="21">1</node>
      <node lid="7">1</node>
      <node lid="22">1</node>
      <node lid="8">1</node>
      <node lid="23">1</node>
      <node lid="9">1</node>
      <node lid="24">1</node>
      <node lid="10">1</node>
<!-- ... 5 like lines cut -->
    </NodeData>
    <NodeData name="nodal_bc_step1_x3_seq3_autogen1" node_set="nodal_bc_step1_variable_x3_seq3_autogen_0">
      <node lid="41">1</node>
      <node lid="5">1</node>
      <node lid="14">1</node>
      <node lid="23">1</node>
      <node lid="32">1</node>
      <node lid="52">1</node>
      <node lid="53">1</node>
      <node lid="54">1</node>
      <node lid="67">1</node>
      <node lid="68">1</node>
      <node lid="69">1</node>
      <node lid="19">1</node>
      <node lid="20">1</node>
      <node lid="21">1</node>
      <node lid="22">1</node>
      <node lid="24">1</node>
      <node lid="25">1</node>
      <node lid="26">1</node>
      <node lid="27">1</node>
      <node lid="39">1</node>
<!-- ... 55 like lines cut -->
    </NodeData>
    <NodeData name="nodal_bc_step1_x3_seq3_autogen2" node_set="nodal_bc_step1_variable_x2_seq3_autogen_0">
      <node lid="5">1</node>
      <node lid="32">1</node>
      <node lid="14">1</node>
      <node lid="41">1</node>
      <node lid="23">1</node>
      <node lid="52">1</node>
      <node lid="53">1</node>
      <node lid="54">1</node>
      <node lid="1">1</node>
      <node lid="2">1</node>
      <node lid="3">1</node>
      <node lid="4">1</node>
      <node lid="6">1</node>
      <node lid="7">1</node>
      <node lid="8">1</node>
      <node lid="9">1</node>
      <node lid="28">1</node>
      <node lid="29">1</node>
      <node lid="30">1</node>
      <node lid="31">1</node>
<!-- ... 55 like lines cut -->
    </NodeData>
    <NodeData name="nodal_bc_step2_x3_seq5_autogen0" node_set="nodal_bc_step2_variable_x1_seq5_autogen_0">
      <node lid="15">0</node>
      <node lid="1">0</node>
      <node lid="16">0</node>
      <node lid="2">0</node>
      <node lid="17">0</node>
      <node lid="3">0</node>
      <node lid="18">0</node>
      <node lid="4">0</node>
      <node lid="19">0</node>
      <node lid="5">0</node>
      <node lid="20">0</node>
      <node lid="6">0</node>
      <node lid="21">0</node>
      <node lid="7">0</node>
      <node lid="22">0</node>
      <node lid="8">0</node>
      <node lid="23">0</node>
      <node lid="9">0</node>
      <node lid="24">0</node>
      <node lid="10">0</node>
<!-- ... 5 like lines cut -->
    </NodeData>
    <NodeData name="nodal_bc_step2_x3_seq5_autogen1" node_set="nodal_bc_step2_variable_x3_seq5_autogen_0">
      <node lid="41">0</node>
      <node lid="5">0</node>
      <node lid="14">0</node>
      <node lid="23">0</node>
      <node lid="32">0</node>
      <node lid="52">0</node>
      <node lid="53">0</node>
      <node lid="54">0</node>
      <node lid="67">0</node>
      <node lid="68">0</node>
      <node lid="69">0</node>
      <node lid="19">0</node>
      <node lid="20">0</node>
      <node lid="21">0</node>
      <node lid="22">0</node>
      <node lid="24">0</node>
      <node lid="25">0</node>
      <node lid="26">0</node>
      <node lid="27">0</node>
      <node lid="39">0</node>
<!-- ... 55 like lines cut -->
    </NodeData>
    <NodeData name="nodal_bc_step2_x3_seq5_autogen2" node_set="nodal_bc_step2_variable_x2_seq5_autogen_0">
      <node lid="5">0</node>
      <node lid="32">0</node>
      <node lid="14">0</node>
      <node lid="41">0</node>
      <node lid="23">0</node>
      <node lid="52">0</node>
      <node lid="53">0</node>
      <node lid="54">0</node>
      <node lid="1">0</node>
      <node lid="2">0</node>
      <node lid="3">0</node>
      <node lid="4">0</node>
      <node lid="6">0</node>
      <node lid="7">0</node>
      <node lid="8">0</node>
      <node lid="9">0</node>
      <node lid="28">0</node>
      <node lid="29">0</node>
      <node lid="30">0</node>
      <node lid="31">0</node>
<!-- ... 55 like lines cut -->
    </NodeData>
    <NodeData name="nodal_bc_step3_x1_seq7_autogen0" node_set="nodal_bc_step3_variable_x3_seq7_autogen_0">
      <node lid="1">0</node>
    </NodeData>
    <NodeData name="nodal_bc_step3_x1_seq7_autogen1" node_set="nodal_bc_step3_variable_x2_seq7_autogen_0">
      <node lid="1">0</node>
      <node lid="2">0</node>
      <node lid="3">0</node>
      <node lid="4">0</node>
      <node lid="5">0</node>
      <node lid="6">0</node>
      <node lid="7">0</node>
      <node lid="8">0</node>
      <node lid="9">0</node>
      <node lid="10">0</node>
      <node lid="11">0</node>
      <node lid="12">0</node>
      <node lid="13">0</node>
      <node lid="14">0</node>
      <node lid="15">0</node>
      <node lid="16">0</node>
      <node lid="17">0</node>
      <node lid="18">0</node>
      <node lid="19">0</node>
      <node lid="20">0</node>
<!-- ... 80 like lines cut -->
    </NodeData>
    <NodeData name="nodal_bc_step3_x1_seq7_autogen2" node_set="nodal_bc_step3_variable_x2_seq7_autogen_1">
      <node lid="1">0</node>
      <node lid="2">0</node>
      <node lid="3">0</node>
      <node lid="4">0</node>
      <node lid="5">0</node>
      <node lid="6">0</node>
      <node lid="7">0</node>
      <node lid="8">0</node>
      <node lid="9">0</node>
      <node lid="10">0</node>
      <node lid="11">0</node>
      <node lid="12">0</node>
      <node lid="13">0</node>
      <node lid="14">0</node>
      <node lid="15">0</node>
      <node lid="16">0</node>
      <node lid="17">0</node>
      <node lid="18">0</node>
      <node lid="19">0</node>
      <node lid="20">0</node>
<!-- ... 80 like lines cut -->
    </NodeData>
    <NodeData name="nodal_bc_step3_x1_seq7_autogen3" node_set="nodal_bc_step3_variable_x1_seq7_autogen_0">
      <node lid="1">-1</node>
      <node lid="2">-1</node>
      <node lid="3">-1</node>
      <node lid="4">-1</node>
      <node lid="5">-1</node>
      <node lid="6">-1</node>
      <node lid="7">-1</node>
      <node lid="8">-1</node>
      <node lid="9">-1</node>
      <node lid="10">-1</node>
      <node lid="11">-1</node>
      <node lid="12">-1</node>
      <node lid="13">-1</node>
      <node lid="14">-1</node>
      <node lid="15">-1</node>
      <node lid="16">-1</node>
      <node lid="17">-1</node>
      <node lid="18">-1</node>
      <node lid="19">-1</node>
      <node lid="20">-1</node>
<!-- ... 80 like lines cut -->
    </NodeData>
    <NodeData name="nodal_bc_step3_x1_seq7_autogen4" node_set="nodal_bc_step3_variable_x1_seq7_autogen_1">
      <node lid="1">1</node>
      <node lid="2">1</node>
      <node lid="3">1</node>
      <node lid="4">1</node>
      <node lid="5">1</node>
      <node lid="6">1</node>
      <node lid="7">1</node>
      <node lid="8">1</node>
      <node lid="9">1</node>
      <node lid="10">1</node>
      <node lid="11">1</node>
      <node lid="12">1</node>
      <node lid="13">1</node>
      <node lid="14">1</node>
      <node lid="15">1</node>
      <node lid="16">1</node>
      <node lid="17">1</node>
      <node lid="18">1</node>
      <node lid="19">1</node>
      <node lid="20">1</node>
<!-- ... 80 like lines cut -->
    </NodeData>
    <NodeData name="nodal_bc_step4_x1_seq9_autogen0" node_set="nodal_bc_step4_variable_x3_seq9_autogen_0">
      <node lid="1">0</node>
    </NodeData>
    <NodeData name="nodal_bc_step4_x1_seq9_autogen1" node_set="nodal_bc_step4_variable_x2_seq9_autogen_0">
      <node lid="1">0</node>
      <node lid="2">0</node>
      <node lid="3">0</node>
      <node lid="4">0</node>
      <node lid="5">0</node>
      <node lid="6">0</node>
      <node lid="7">0</node>
      <node lid="8">0</node>
      <node lid="9">0</node>
      <node lid="10">0</node>
      <node lid="11">0</node>
      <node lid="12">0</node>
      <node lid="13">0</node>
      <node lid="14">0</node>
      <node lid="15">0</node>
      <node lid="16">0</node>
      <node lid="17">0</node>
      <node lid="18">0</node>
      <node lid="19">0</node>
      <node lid="20">0</node>
<!-- ... 80 like lines cut -->
    </NodeData>
    <NodeData name="nodal_bc_step4_x1_seq9_autogen2" node_set="nodal_bc_step4_variable_x2_seq9_autogen_1">
      <node lid="1">0</node>
      <node lid="2">0</node>
      <node lid="3">0</node>
      <node lid="4">0</node>
      <node lid="5">0</node>
      <node lid="6">0</node>
      <node lid="7">0</node>
      <node lid="8">0</node>
      <node lid="9">0</node>
      <node lid="10">0</node>
      <node lid="11">0</node>
      <node lid="12">0</node>
      <node lid="13">0</node>
      <node lid="14">0</node>
      <node lid="15">0</node>
      <node lid="16">0</node>
      <node lid="17">0</node>
      <node lid="18">0</node>
      <node lid="19">0</node>
      <node lid="20">0</node>
<!-- ... 80 like lines cut -->
    </NodeData>
    <NodeData name="nodal_bc_step4_x1_seq9_autogen3" node_set="nodal_bc_step4_variable_x1_seq9_autogen_0">
      <node lid="1">-1</node>
      <node lid="2">-1</node>
      <node lid="3">-1</node>
      <node lid="4">-1</node>
      <node lid="5">-1</node>
      <node lid="6">-1</node>
      <node lid="7">-1</node>
      <node lid="8">-1</node>
      <node lid="9">-1</node>
      <node lid="10">-1</node>
      <node lid="11">-1</node>
      <node lid="12">-1</node>
      <node lid="13">-1</node>
      <node lid="14">-1</node>
      <node lid="15">-1</node>
      <node lid="16">-1</node>
      <node lid="17">-1</node>
      <node lid="18">-1</node>
      <node lid="19">-1</node>
      <node lid="20">-1</node>
<!-- ... 80 like lines cut -->
    </NodeData>
    <NodeData name="nodal_bc_step4_x1_seq9_autogen4" node_set="nodal_bc_step4_variable_x1_seq9_autogen_1">
      <node lid="1">1</node>
      <node lid="2">1</node>
      <node lid="3">1</node>
      <node lid="4">1</node>
      <node lid="5">1</node>
      <node lid="6">1</node>
      <node lid="7">1</node>
      <node lid="8">1</node>
      <node lid="9">1</node>
      <node lid="10">1</node>
      <node lid="11">1</node>
      <node lid="12">1</node>
      <node lid="13">1</node>
      <node lid="14">1</node>
      <node lid="15">1</node>
      <node lid="16">1</node>
      <node lid="17">1</node>
      <node lid="18">1</node>
      <node lid="19">1</node>
      <node lid="20">1</node>
<!-- ... 80 like lines cut -->
    </NodeData>
    <NodeData name="nodal_bc_step5_x1_seq11_autogen0" node_set="nodal_bc_step5_variable_x3_seq11_autogen_0">
      <node lid="1">0</node>
    </NodeData>
    <NodeData name="nodal_bc_step5_x1_seq11_autogen1" node_set="nodal_bc_step5_variable_x2_seq11_autogen_0">
      <node lid="1">0</node>
      <node lid="2">0</node>
      <node lid="3">0</node>
      <node lid="4">0</node>
      <node lid="5">0</node>
      <node lid="6">0</node>
      <node lid="7">0</node>
      <node lid="8">0</node>
      <node lid="9">0</node>
      <node lid="10">0</node>
      <node lid="11">0</node>
      <node lid="12">0</node>
      <node lid="13">0</node>
      <node lid="14">0</node>
      <node lid="15">0</node>
      <node lid="16">0</node>
      <node lid="17">0</node>
      <node lid="18">0</node>
      <node lid="19">0</node>
      <node lid="20">0</node>
<!-- ... 80 like lines cut -->
    </NodeData>
    <NodeData name="nodal_bc_step5_x1_seq11_autogen2" node_set="nodal_bc_step5_variable_x2_seq11_autogen_1">
      <node lid="1">0</node>
      <node lid="2">0</node>
      <node lid="3">0</node>
      <node lid="4">0</node>
      <node lid="5">0</node>
      <node lid="6">0</node>
      <node lid="7">0</node>
      <node lid="8">0</node>
      <node lid="9">0</node>
      <node lid="10">0</node>
      <node lid="11">0</node>
      <node lid="12">0</node>
      <node lid="13">0</node>
      <node lid="14">0</node>
      <node lid="15">0</node>
      <node lid="16">0</node>
      <node lid="17">0</node>
      <node lid="18">0</node>
      <node lid="19">0</node>
      <node lid="20">0</node>
<!-- ... 80 like lines cut -->
    </NodeData>
    <NodeData name="nodal_bc_step5_x1_seq11_autogen3" node_set="nodal_bc_step5_variable_x1_seq11_autogen_0">
      <node lid="1">-1</node>
      <node lid="2">-1</node>
      <node lid="3">-1</node>
      <node lid="4">-1</node>
      <node lid="5">-1</node>
      <node lid="6">-1</node>
      <node lid="7">-1</node>
      <node lid="8">-1</node>
      <node lid="9">-1</node>
      <node lid="10">-1</node>
      <node lid="11">-1</node>
      <node lid="12">-1</node>
      <node lid="13">-1</node>
      <node lid="14">-1</node>
      <node lid="15">-1</node>
      <node lid="16">-1</node>
      <node lid="17">-1</node>
      <node lid="18">-1</node>
      <node lid="19">-1</node>
      <node lid="20">-1</node>
<!-- ... 80 like lines cut -->
    </NodeData>
    <NodeData name="nodal_bc_step5_x1_seq11_autogen4" node_set="nodal_bc_step5_variable_x1_seq11_autogen_1">
      <node lid="1">1</node>
      <node lid="2">1</node>
      <node lid="3">1</node>
      <node lid="4">1</node>
      <node lid="5">1</node>
      <node lid="6">1</node>
      <node lid="7">1</node>
      <node lid="8">1</node>
      <node lid="9">1</node>
      <node lid="10">1</node>
      <node lid="11">1</node>
      <node lid="12">1</node>
      <node lid="13">1</node>
      <node lid="14">1</node>
      <node lid="15">1</node>
      <node lid="16">1</node>
      <node lid="17">1</node>
      <node lid="18">1</node>
      <node lid="19">1</node>
      <node lid="20">1</node>
<!-- ... 80 like lines cut -->
    </NodeData>
    <NodeData name="nodal_bc_step6_x1_seq13_autogen0" node_set="nodal_bc_step6_variable_x3_seq13_autogen_0">
      <node lid="1">0</node>
    </NodeData>
    <NodeData name="nodal_bc_step6_x1_seq13_autogen1" node_set="nodal_bc_step6_variable_x2_seq13_autogen_0">
      <node lid="1">0</node>
      <node lid="2">0</node>
      <node lid="3">0</node>
      <node lid="4">0</node>
      <node lid="5">0</node>
      <node lid="6">0</node>
      <node lid="7">0</node>
      <node lid="8">0</node>
      <node lid="9">0</node>
      <node lid="10">0</node>
      <node lid="11">0</node>
      <node lid="12">0</node>
      <node lid="13">0</node>
      <node lid="14">0</node>
      <node lid="15">0</node>
      <node lid="16">0</node>
      <node lid="17">0</node>
      <node lid="18">0</node>
      <node lid="19">0</node>
      <node lid="20">0</node>
<!-- ... 80 like lines cut -->
    </NodeData>
    <NodeData name="nodal_bc_step6_x1_seq13_autogen2" node_set="nodal_bc_step6_variable_x2_seq13_autogen_1">
      <node lid="1">0</node>
      <node lid="2">0</node>
      <node lid="3">0</node>
      <node lid="4">0</node>
      <node lid="5">0</node>
      <node lid="6">0</node>
      <node lid="7">0</node>
      <node lid="8">0</node>
      <node lid="9">0</node>
      <node lid="10">0</node>
      <node lid="11">0</node>
      <node lid="12">0</node>
      <node lid="13">0</node>
      <node lid="14">0</node>
      <node lid="15">0</node>
      <node lid="16">0</node>
      <node lid="17">0</node>
      <node lid="18">0</node>
      <node lid="19">0</node>
      <node lid="20">0</node>
<!-- ... 80 like lines cut -->
    </NodeData>
    <NodeData name="nodal_bc_step6_x1_seq13_autogen3" node_set="nodal_bc_step6_variable_x1_seq13_autogen_0">
      <node lid="1">-1</node>
      <node lid="2">-1</node>
      <node lid="3">-1</node>
      <node lid="4">-1</node>
      <node lid="5">-1</node>
      <node lid="6">-1</node>
      <node lid="7">-1</node>
      <node lid="8">-1</node>
      <node lid="9">-1</node>
      <node lid="10">-1</node>
      <node lid="11">-1</node>
      <node lid="12">-1</node>
      <node lid="13">-1</node>
      <node lid="14">-1</node>
      <node lid="15">-1</node>
      <node lid="16">-1</node>
      <node lid="17">-1</node>
      <node lid="18">-1</node>
      <node lid="19">-1</node>
      <node lid="20">-1</node>
<!-- ... 80 like lines cut -->
    </NodeData>
    <NodeData name="nodal_bc_step6_x1_seq13_autogen4" node_set="nodal_bc_step6_variable_x1_seq13_autogen_1">
      <node lid="1">1</node>
      <node lid="2">1</node>
      <node lid="3">1</node>
      <node lid="4">1</node>
      <node lid="5">1</node>
      <node lid="6">1</node>
      <node lid="7">1</node>
      <node lid="8">1</node>
      <node lid="9">1</node>
      <node lid="10">1</node>
      <node lid="11">1</node>
      <node lid="12">1</node>
      <node lid="13">1</node>
      <node lid="14">1</node>
      <node lid="15">1</node>
      <node lid="16">1</node>
      <node lid="17">1</node>
      <node lid="18">1</node>
      <node lid="19">1</node>
      <node lid="20">1</node>
<!-- ... 80 like lines cut -->
    </NodeData>
  </MeshData>
  <Boundary>
    <fix bc="p" node_set="fixed_fluid_autogen-nodeset_0"/>
  </Boundary>
  <Contact/>
  <Constraints/>
  <LoadData>
    <loadcurve id="1" type="linear" extrap="constant">
      <point>0, 0</point>
      <point>1, 1</point>
    </loadcurve>
    <loadcurve id="2" type="step" extrap="constant">
      <point>0, 1e+16</point>
      <point>2, 1e+16</point>
      <point>3, 0.0064</point>
    </loadcurve>
    <loadcurve id="3" type="step" extrap="constant">
      <point>0.0, 0.25</point>
      <point>0.25, 0.25</point>
      <point>0.5, 0.25</point>
      <point>0.75, 0.25</point>
      <point>1.0, 0.25</point>
    </loadcurve>
    <loadcurve id="4" type="linear" extrap="constant">
      <point>0.0, 0</point>
      <point>0.25, 0</point>
      <point>0.5, 0</point>
      <point>0.75, 0</point>
      <point>1.0, 0</point>
    </loadcurve>
    <loadcurve id="5" type="step" extrap="constant">
      <point>1.0, 1.0</point>
      <point>2.0, 1.0</point>
    </loadcurve>
    <loadcurve id="6" type="linear" extrap="constant">
      <point>1.0, 0</point>
      <point>2.0, 0</point>
    </loadcurve>
    <loadcurve id="7" type="step" extrap="constant">
      <point>2.0, 0.3315416143214522</point>
      <point>2.331541614321452, 0.3315416143214522</point>
      <point>2.6630832286429045, 0.3315416143214521</point>
      <point>2.9946248429643565, 0.33154161432145224</point>
      <point>3.326166457285809, 0.33154161432145224</point>
      <point>3.657708071607261, 0.331541614321452</point>
      <point>3.989249685928713, 0.33154161432145246</point>
      <point>4.320791300250166, 0.331541614321452</point>
      <point>4.652332914571618, 0.331541614321452</point>
      <point>4.98387452889307, 0.331541614321452</point>
    </loadcurve>
    <loadcurve id="8" type="linear" extrap="constant">
      <point>2.0, 0.0</point>
      <point>2.331541614321452, 0.015913997487429707</point>
      <point>2.6630832286429045, 0.031827994974859414</point>
      <point>2.9946248429643565, 0.04774199246228912</point>
      <point>3.326166457285809, 0.06365598994971883</point>
      <point>3.657708071607261, 0.07956998743714853</point>
      <point>3.989249685928713, 0.09548398492457824</point>
      <point>4.320791300250166, 0.11139798241200796</point>
      <point>4.652332914571618, 0.12731197989943766</point>
      <point>4.98387452889307, 0.14322597738686735</point>
    </loadcurve>
    <loadcurve id="9" type="step" extrap="constant">
      <point>4.98387452889307, 1.0</point>
      <point>5.98387452889307, 1.2246869451317788</point>
      <point>7.208561474024849, 2.7245450587079874</point>
      <point>9.933106532732836, 6.06125982353095</point>
      <point>15.994366356263786, 13.484405600461058</point>
      <point>29.47877195672484, 29.998581102207567</point>
      <point>59.47735305893241, 66.73745175055798</point>
      <point>126.21480480949039, 148.4699376608284</point>
      <point>274.6847424703188, 330.2991320585743</point>
      <point>604.9838745288931, 330.2991320585743</point>
    </loadcurve>
    <loadcurve id="10" type="linear" extrap="constant">
      <point>4.98387452889307, 0</point>
      <point>5.98387452889307, 0</point>
      <point>7.208561474024849, 0</point>
      <point>9.933106532732836, 0</point>
      <point>15.994366356263786, 0</point>
      <point>29.47877195672484, 0</point>
      <point>59.47735305893241, 0</point>
      <point>126.21480480949039, 0</point>
      <point>274.6847424703188, 0</point>
      <point>604.9838745288931, 0</point>
    </loadcurve>
    <loadcurve id="11" type="step" extrap="constant">
      <point>604.9838745288931, 0.2</point>
      <point>605.1838745288932, 0.2</point>
      <point>605.3838745288931, 0.20000000000000007</point>
      <point>605.5838745288931, 0.19999999999999996</point>
      <point>605.7838745288931, 0.19999999999999996</point>
      <point>605.9838745288931, 0.19999999999999996</point>
      <point>606.1838745288932, 0.19999999999999996</point>
      <point>606.3838745288931, 0.20000000000000018</point>
      <point>606.5838745288931, 0.19999999999999996</point>
      <point>606.7838745288931, 0.19999999999999996</point>
      <point>606.9838745288931, 0.20000000000000018</point>
      <point>607.1838745288932, 0.19999999999999973</point>
      <point>607.3838745288931, 0.20000000000000018</point>
      <point>607.5838745288931, 0.19999999999999973</point>
      <point>607.7838745288931, 0.20000000000000018</point>
      <point>607.9838745288931, 0.20000000000000018</point>
      <point>608.1838745288932, 0.19999999999999973</point>
      <point>608.3838745288931, 0.20000000000000018</point>
      <point>608.5838745288931, 0.19999999999999973</point>
      <point>608.7838745288931, 0.20000000000000018</point>
<!-- ... 81 like lines cut -->
    </loadcurve>
    <loadcurve id="12" type="linear" extrap="constant">
      <point>604.9838745288931, 0</point>
      <point>605.9838745288931, 0.09886451954773735</point>
      <point>606.9838745288931, 0</point>
      <point>607.9838745288931, 0.09886451954773735</point>
      <point>608.9838745288931, 0</point>
      <point>609.9838745288931, 0.09886451954773735</point>
      <point>610.9838745288931, 0</point>
      <point>611.9838745288931, 0.09886451954773735</point>
      <point>612.9838745288931, 0</point>
      <point>613.9838745288931, 0.09886451954773735</point>
      <point>614.9838745288931, 0</point>
      <point>615.9838745288931, 0.09886451954773735</point>
      <point>616.9838745288931, 0</point>
      <point>617.9838745288931, 0.09886451954773735</point>
      <point>618.9838745288931, 0</point>
      <point>619.9838745288931, 0.09886451954773735</point>
      <point>620.9838745288931, 0</point>
      <point>621.9838745288931, 0.09886451954773735</point>
      <point>622.9838745288931, 0</point>
      <point>623.9838745288931, 0.09886451954773735</point>
      <point>624.9838745288931, 0</point>
    </loadcurve>
    <loadcurve id="13" type="step" extrap="constant">
      <point>624.9838745288931, 26</point>
      <point>724.9838745288931, 26</point>
      <point>824.9838745288931, 26</point>
      <point>924.9838745288931, 26</point>
      <point>1024.983874528893, 26</point>
      <point>1124.983874528893, 26</point>
      <point>1224.983874528893, 26</point>
      <point>1324.983874528893, 26</point>
      <point>1424.983874528893, 26</point>
      <point>1524.983874528893, 26</point>
      <point>1624.983874528893, 26</point>
      <point>1724.983874528893, 26</point>
      <point>1824.983874528893, 26</point>
      <point>1924.983874528893, 26</point>
      <point>2024.983874528893, 26</point>
      <point>2124.983874528893, 26</point>
      <point>2224.983874528893, 26</point>
      <point>2324.983874528893, 26</point>
      <point>2424.983874528893, 26</point>
      <point>2524.983874528893, 26</point>
<!-- ... 21 like lines cut -->
    </loadcurve>
    <loadcurve id="14" type="linear" extrap="linear">
      <point>624.9838745288931, 0.0</point>
      <point>4624.9838745288935, 1.977290390954747</point>
    </loadcurve>
  </LoadData>
  <Output>
    <plotfile type="febio">
      <var type="displacement"/>
      <var type="stress"/>
      <var type="relative volume"/>
      <var type="effective fluid pressure"/>
      <var type="fluid pressure"/>
      <var type="fluid flux"/>
      <var type="reaction forces"/>
    </plotfile>
  </Output>
  <Step name="Property instantiation">
    <Boundary>
      <prescribe bc="x" node_set="nodal_bc_step1_variable_x1_seq3_autogen_0">
        <scale lc="4">1.0</scale>
        <value node_data="nodal_bc_step1_x3_seq3_autogen0"/>
        <relative>0</relative>
      </prescribe>
      <prescribe bc="z" node_set="nodal_bc_step1_variable_x3_seq3_autogen_0">
        <scale lc="4">1.0</scale>
        <value node_data="nodal_bc_step1_x3_seq3_autogen1"/>
        <relative>0</relative>
      </prescribe>
      <prescribe bc="y" node_set="nodal_bc_step1_variable_x2_seq3_autogen_0">
        <scale lc="4">1.0</scale>
        <value node_data="nodal_bc_step1_x3_seq3_autogen2"/>
        <relative>0</relative>
      </prescribe>
    </Boundary>
    <Contact/>
    <Control>
      <time_steps>40</time_steps>
      <step_size>0.025</step_size>
      <dtol>0.001</dtol>
      <etol>0.01</etol>
      <rtol>0</rtol>
      <lstol>0.9</lstol>
      <min_residual>1e-20</min_residual>
      <qnmethod>0</qnmethod>
      <reform_each_time_step>1</reform_each_time_step>
      <diverge_reform>1</diverge_reform>
      <max_refs>50</max_refs>
      <max_ups>0</max_ups>
      <plot_level>PLOT_MUST_POINTS</plot_level>
      <ptol>0.01</ptol>
      <symmetric_biphasic>0</symmetric_biphasic>
      <time_stepper>
        <dtmin>0.025</dtmin>
        <max_retries>15</max_retries>
        <opt_iter>10</opt_iter>
        <dtmax lc="3">1</dtmax>
      </time_stepper>
    </Control>
  </Step>
  <Step name="Swelling">
    <Boundary>
      <prescribe bc="x" node_set="nodal_bc_step2_variable_x1_seq5_autogen_0">
        <scale lc="6">1.0</scale>
        <value node_data="nodal_bc_step2_x3_seq5_autogen0"/>
        <relative>0</relative>
      </prescribe>
      <prescribe bc="z" node_set="nodal_bc_step2_variable_x3_seq5_autogen_0">
        <scale lc="6">1.0</scale>
        <value node_data="nodal_bc_step2_x3_seq5_autogen1"/>
        <relative>0</relative>
      </prescribe>
      <prescribe bc="y" node_set="nodal_bc_step2_variable_x2_seq5_autogen_0">
        <scale lc="6">1.0</scale>
        <value node_data="nodal_bc_step2_x3_seq5_autogen2"/>
        <relative>0</relative>
      </prescribe>
    </Boundary>
    <Contact/>
    <Control>
      <time_steps>10</time_steps>
      <step_size>0.1</step_size>
      <dtol>0.001</dtol>
      <etol>0.01</etol>
      <rtol>0</rtol>
      <lstol>0.9</lstol>
      <min_residual>1e-20</min_residual>
      <qnmethod>0</qnmethod>
      <reform_each_time_step>1</reform_each_time_step>
      <diverge_reform>1</diverge_reform>
      <max_refs>50</max_refs>
      <max_ups>0</max_ups>
      <plot_level>PLOT_MUST_POINTS</plot_level>
      <ptol>0.01</ptol>
      <symmetric_biphasic>0</symmetric_biphasic>
      <time_stepper>
        <dtmin>0.1</dtmin>
        <max_retries>15</max_retries>
        <opt_iter>10</opt_iter>
        <dtmax lc="5">1</dtmax>
      </time_stepper>
    </Control>
  </Step>
  <Step name="Preload ramp">
    <Boundary>
      <prescribe bc="z" node_set="nodal_bc_step3_variable_x3_seq7_autogen_0">
        <scale lc="8">1.0</scale>
        <value node_data="nodal_bc_step3_x1_seq7_autogen0"/>
        <relative>0</relative>
      </prescribe>
      <prescribe bc="y" node_set="nodal_bc_step3_variable_x2_seq7_autogen_0">
        <scale lc="8">1.0</scale>
        <value node_data="nodal_bc_step3_x1_seq7_autogen1"/>
        <relative>1</relative>
      </prescribe>
      <prescribe bc="y" node_set="nodal_bc_step3_variable_x2_seq7_autogen_1">
        <scale lc="8">1.0</scale>
        <value node_data="nodal_bc_step3_x1_seq7_autogen2"/>
        <relative>1</relative>
      </prescribe>
      <prescribe bc="x" node_set="nodal_bc_step3_variable_x1_seq7_autogen_0">
        <scale lc="8">1.0</scale>
        <value node_data="nodal_bc_step3_x1_seq7_autogen3"/>
        <relative>1</relative>
      </prescribe>
      <prescribe bc="x" node_set="nodal_bc_step3_variable_x1_seq7_autogen_1">
        <scale lc="8">1.0</scale>
        <value node_data="nodal_bc_step3_x1_seq7_autogen4"/>
        <relative>1</relative>
      </prescribe>
    </Boundary>
    <Contact/>
    <Control>
      <time_steps>10</time_steps>
      <step_size>0.29838745288930696</step_size>
      <dtol>0.001</dtol>
      <etol>0.01</etol>
      <rtol>0</rtol>
      <lstol>0.9</lstol>
      <min_residual>1e-20</min_residual>
      <qnmethod>0</qnmethod>
      <reform_each_time_step>1</reform_each_time_step>
      <diverge_reform>1</diverge_reform>
      <max_refs>50</max_refs>
      <max_ups>0</max_ups>
      <plot_level>PLOT_MUST_POINTS</plot_level>
      <ptol>0.01</ptol>
      <symmetric_biphasic>0</symmetric_biphasic>
      <time_stepper>
        <dtmin>0.0331541614321452</dtmin>
        <max_retries>15</max_retries>
        <opt_iter>10</opt_iter>
        <dtmax lc="7">1</dtmax>
      </time_stepper>
    </Control>
  </Step>
  <Step name="Preload hold">
    <Boundary>
      <prescribe bc="z" node_set="nodal_bc_step4_variable_x3_seq9_autogen_0">
        <scale lc="10">1.0</scale>
        <value node_data="nodal_bc_step4_x1_seq9_autogen0"/>
        <relative>0</relative>
      </prescribe>
      <prescribe bc="y" node_set="nodal_bc_step4_variable_x2_seq9_autogen_0">
        <scale lc="10">1.0</scale>
        <value node_data="nodal_bc_step4_x1_seq9_autogen1"/>
        <relative>1</relative>
      </prescribe>
      <prescribe bc="y" node_set="nodal_bc_step4_variable_x2_seq9_autogen_1">
        <scale lc="10">1.0</scale>
        <value node_data="nodal_bc_step4_x1_seq9_autogen2"/>
        <relative>1</relative>
      </prescribe>
      <prescribe bc="x" node_set="nodal_bc_step4_variable_x1_seq9_autogen_0">
        <scale lc="10">1.0</scale>
        <value node_data="nodal_bc_step4_x1_seq9_autogen3"/>
        <relative>1</relative>
      </prescribe>
      <prescribe bc="x" node_set="nodal_bc_step4_variable_x1_seq9_autogen_1">
        <scale lc="10">1.0</scale>
        <value node_data="nodal_bc_step4_x1_seq9_autogen4"/>
        <relative>1</relative>
      </prescribe>
    </Boundary>
    <Contact/>
    <Control>
      <time_steps>600</time_steps>
      <step_size>1.0</step_size>
      <dtol>0.001</dtol>
      <etol>0.01</etol>
      <rtol>0</rtol>
      <lstol>0.9</lstol>
      <min_residual>1e-20</min_residual>
      <qnmethod>0</qnmethod>
      <reform_each_time_step>1</reform_each_time_step>
      <diverge_reform>1</diverge_reform>
      <max_refs>50</max_refs>
      <max_ups>0</max_ups>
      <plot_level>PLOT_MUST_POINTS</plot_level>
      <ptol>0.01</ptol>
      <symmetric_biphasic>0</symmetric_biphasic>
      <time_stepper>
        <dtmin>0.1</dtmin>
        <max_retries>15</max_retries>
        <opt_iter>10</opt_iter>
        <dtmax lc="9">1</dtmax>
      </time_stepper>
    </Control>
  </Step>
  <Step name="Preconditioning">
    <Boundary>
      <prescribe bc="z" node_set="nodal_bc_step5_variable_x3_seq11_autogen_0">
        <scale lc="12">1.0</scale>
        <value node_data="nodal_bc_step5_x1_seq11_autogen0"/>
        <relative>0</relative>
      </prescribe>
      <prescribe bc="y" node_set="nodal_bc_step5_variable_x2_seq11_autogen_0">
        <scale lc="12">1.0</scale>
        <value node_data="nodal_bc_step5_x1_seq11_autogen1"/>
        <relative>1</relative>
      </prescribe>
      <prescribe bc="y" node_set="nodal_bc_step5_variable_x2_seq11_autogen_1">
        <scale lc="12">1.0</scale>
        <value node_data="nodal_bc_step5_x1_seq11_autogen2"/>
        <relative>1</relative>
      </prescribe>
      <prescribe bc="x" node_set="nodal_bc_step5_variable_x1_seq11_autogen_0">
        <scale lc="12">1.0</scale>
        <value node_data="nodal_bc_step5_x1_seq11_autogen3"/>
        <relative>1</relative>
      </prescribe>
      <prescribe bc="x" node_set="nodal_bc_step5_variable_x1_seq11_autogen_1">
        <scale lc="12">1.0</scale>
        <value node_data="nodal_bc_step5_x1_seq11_autogen4"/>
        <relative>1</relative>
      </prescribe>
    </Boundary>
    <Contact/>
    <Control>
      <time_steps>101</time_steps>
      <step_size>0.19801980198019803</step_size>
      <dtol>0.001</dtol>
      <etol>0.01</etol>
      <rtol>0</rtol>
      <lstol>0.9</lstol>
      <min_residual>1e-20</min_residual>
      <qnmethod>0</qnmethod>
      <reform_each_time_step>1</reform_each_time_step>
      <diverge_reform>1</diverge_reform>
      <max_refs>50</max_refs>
      <max_ups>0</max_ups>
      <plot_level>PLOT_MUST_POINTS</plot_level>
      <ptol>0.01</ptol>
      <symmetric_biphasic>0</symmetric_biphasic>
      <time_stepper>
        <dtmin>0.01999999999999993</dtmin>
        <max_retries>15</max_retries>
        <opt_iter>10</opt_iter>
        <dtmax lc="11">1</dtmax>
      </time_stepper>
    </Control>
  </Step>
  <Step name="Ramp to failure">
    <Boundary>
      <prescribe bc="z" node_set="nodal_bc_step6_variable_x3_seq13_autogen_0">
        <scale lc="14">1.0</scale>
        <value node_data="nodal_bc_step6_x1_seq13_autogen0"/>
        <relative>0</relative>
      </prescribe>
      <prescribe bc="y" node_set="nodal_bc_step6_variable_x2_seq13_autogen_0">
        <scale lc="14">1.0</scale>
        <value node_data="nodal_bc_step6_x1_seq13_autogen1"/>
        <relative>1</relative>
      </prescribe>
      <prescribe bc="y" node_set="nodal_bc_step6_variable_x2_seq13_autogen_1">
        <scale lc="14">1.0</scale>
        <value node_data="nodal_bc_step6_x1_seq13_autogen2"/>
        <relative>1</relative>
      </prescribe>
      <prescribe bc="x" node_set="nodal_bc_step6_variable_x1_seq13_autogen_0">
        <scale lc="14">1.0</scale>
        <value node_data="nodal_bc_step6_x1_seq13_autogen3"/>
        <relative>1</relative>
      </prescribe>
      <prescribe bc="x" node_set="nodal_bc_step6_variable_x1_seq13_autogen_1">
        <scale lc="14">1.0</scale>
        <value node_data="nodal_bc_step6_x1_seq13_autogen4"/>
        <relative>1</relative>
      </prescribe>
    </Boundary>
    <Contact/>
    <Control>
      <time_steps>400</time_steps>
      <step_size>10.0</step_size>
      <dtol>0.001</dtol>
      <etol>0.01</etol>
      <rtol>0</rtol>
      <lstol>0.9</lstol>
      <min_residual>1e-20</min_residual>
      <qnmethod>0</qnmethod>
      <reform_each_time_step>1</reform_each_time_step>
      <diverge_reform>1</diverge_reform>
      <max_refs>50</max_refs>
      <max_ups>0</max_ups>
      <plot_level>PLOT_MUST_POINTS</plot_level>
      <ptol>0.01</ptol>
      <symmetric_biphasic>0</symmetric_biphasic>
      <time_stepper>
        <dtmin>10.0</dtmin>
        <max_retries>15</max_retries>
        <opt_iter>10</opt_iter>
        <dtmax lc="13">1</dtmax>
      </time_stepper>
    </Control>
  </Step>
</febio_spec>
